data_image0
_cell_length_a       31.467
_cell_length_b       16.3441
_cell_length_c       23.6397
_cell_angle_alpha    90
_cell_angle_beta     90
_cell_angle_gamma    90

_symmetry_space_group_name_H-M    "P 1"
_symmetry_int_tables_number       1

loop_
  _symmetry_equiv_pos_as_xyz
  'x, y, z'

loop_
  _atom_site_label
  _atom_site_occupancy
  _atom_site_fract_x
  _atom_site_fract_y
  _atom_site_fract_z
  _atom_site_thermal_displace_type
  _atom_site_B_iso_or_equiv
  _atom_site_type_symbol
  C1       1.0000 0.22590  0.47150  0.40680  Biso   1.000  C
  H1       1.0000 0.23760  0.51800  0.42340  Biso   1.000  H
  C2       1.0000 0.18510  0.36810  0.38990  Biso   1.000  C
  H2       1.0000 0.16280  0.33080  0.39270  Biso   1.000  H
  C3       1.0000 0.21650  0.36550  0.35140  Biso   1.000  C
  H3       1.0000 0.22010  0.32620  0.32340  Biso   1.000  H
  C4       1.0000 0.27880  0.45770  0.33080  Biso   1.000  C
  C5       1.0000 0.28120  0.43790  0.27380  Biso   1.000  C
  H4       1.0000 0.25920  0.40920  0.25660  Biso   1.000  H
  C6       1.0000 0.31660  0.46100  0.24210  Biso   1.000  C
  C7       1.0000 0.34810  0.50760  0.26840  Biso   1.000  C
  H5       1.0000 0.37150  0.52530  0.24760  Biso   1.000  H
  C8       1.0000 0.34500  0.52740  0.32470  Biso   1.000  C
  C9       1.0000 0.31050  0.50180  0.35810  Biso   1.000  C
  H6       1.0000 0.30900  0.51360  0.39650  Biso   1.000  H
  C10      1.0000 0.32050  0.43640  0.18110  Biso   1.000  C
  H7       1.0000 0.29580  0.40570  0.17010  Biso   1.000  H
  H8       1.0000 0.34540  0.40320  0.17620  Biso   1.000  H
  H9       1.0000 0.32280  0.48440  0.15790  Biso   1.000  H
  C11      1.0000 0.37060  0.62770  0.39480  Biso   1.000  C
  H10      1.0000 0.34440  0.63610  0.41220  Biso   1.000  H
  C12      1.0000 0.41870  0.58110  0.33720  Biso   1.000  C
  H11      1.0000 0.43220  0.55300  0.30800  Biso   1.000  H
  C13      1.0000 0.43690  0.63490  0.37360  Biso   1.000  C
  H12      1.0000 0.46540  0.64950  0.37440  Biso   1.000  H
  C14      1.0000 0.37740  0.62430  0.54830  Biso   1.000  C
  H13      1.0000 0.35110  0.62590  0.53020  Biso   1.000  H
  C15      1.0000 0.44300  0.64600  0.56990  Biso   1.000  C
  H14      1.0000 0.47070  0.66560  0.56870  Biso   1.000  H
  C16      1.0000 0.42730  0.59440  0.60980  Biso   1.000  C
  H15      1.0000 0.44190  0.57300  0.64070  Biso   1.000  H
  C17      1.0000 0.35490  0.53530  0.62700  Biso   1.000  C
  C18      1.0000 0.31980  0.50480  0.59780  Biso   1.000  C
  H16      1.0000 0.31680  0.51150  0.55890  Biso   1.000  H
  C19      1.0000 0.28940  0.46390  0.62990  Biso   1.000  C
  C20      1.0000 0.29420  0.45250  0.68710  Biso   1.000  C
  H17      1.0000 0.27270  0.42680  0.70750  Biso   1.000  H
  C21      1.0000 0.33060  0.47900  0.71500  Biso   1.000  C
  C22      1.0000 0.36080  0.52180  0.68430  Biso   1.000  C
  H18      1.0000 0.38500  0.54150  0.70220  Biso   1.000  H
  C23      1.0000 0.33690  0.46410  0.77690  Biso   1.000  C
  H19      1.0000 0.36380  0.48630  0.78840  Biso   1.000  H
  H20      1.0000 0.33650  0.40630  0.78420  Biso   1.000  H
  H21      1.0000 0.31450  0.49010  0.79780  Biso   1.000  H
  C24      1.0000 0.22660  0.37110  0.61720  Biso   1.000  C
  H22      1.0000 0.23210  0.33370  0.64590  Biso   1.000  H
  C25      1.0000 0.19280  0.37180  0.58190  Biso   1.000  C
  H23      1.0000 0.17080  0.33360  0.58210  Biso   1.000  H
  C26      1.0000 0.23080  0.47660  0.55930  Biso   1.000  C
  H24      1.0000 0.24040  0.52440  0.54220  Biso   1.000  H
  C27      1.0000 0.07210  0.52700  0.62230  Biso   1.000  C
  H25      1.0000 0.05280  0.51400  0.65090  Biso   1.000  H
  C28      1.0000 0.11440  0.59350  0.56570  Biso   1.000  C
  H26      1.0000 0.12970  0.63590  0.54920  Biso   1.000  H
  C29      1.0000 0.08170  0.67690  0.63960  Biso   1.000  C
  C30      1.0000 0.07300  0.67660  0.69830  Biso   1.000  C
  H27      1.0000 0.07000  0.62760  0.71790  Biso   1.000  H
  H28      1.0000 0.06370  0.80530  0.80340  Biso   1.000  H
  H29      1.0000 0.08690  0.72070  0.80680  Biso   1.000  H
  H30      1.0000 0.03740  0.72400  0.79960  Biso   1.000  H
  C31      1.0000 0.08170  0.47590  0.39890  Biso   1.000  C
  H31      1.0000 0.07500  0.42080  0.40320  Biso   1.000  H
  C32      1.0000 0.06290  0.52650  0.36370  Biso   1.000  C
  H32      1.0000 0.04140  0.51370  0.33820  Biso   1.000  H
  C33      1.0000 0.11160  0.59230  0.41050  Biso   1.000  C
  H33      1.0000 0.12950  0.63380  0.42300  Biso   1.000  H
  C34      1.0000 0.07130  0.67810  0.34480  Biso   1.000  C
  C35      1.0000 0.05250  0.67730  0.29120  Biso   1.000  C
  H34      1.0000 0.04790  0.62770  0.27290  Biso   1.000  H
  H35      1.0000 0.00990  0.69490  0.19910  Biso   1.000  H
  H36      1.0000 0.03510  0.77300  0.18030  Biso   1.000  H
  H37      1.0000 0.99190  0.78210  0.21260  Biso   1.000  H
  C36      1.0000 0.09000  0.47370  0.58520  Biso   1.000  C
  H38      1.0000 0.08530  0.41750  0.58430  Biso   1.000  H
  N1       1.0000 0.19119  0.43520  0.42440  Biso   1.000  N
  N2       1.0000 0.24262  0.43280  0.36170  Biso   1.000  N
  N3       1.0000 0.37649  0.57640  0.35160  Biso   1.000  N
  N4       1.0000 0.40523  0.66470  0.41000  Biso   1.000  N
  N5       1.0000 0.41150  0.66500  0.53110  Biso   1.000  N
  N6       1.0000 0.38560  0.58020  0.59560  Biso   1.000  N
  N7       1.0000 0.25087  0.43620  0.60220  Biso   1.000  N
  N8       1.0000 0.19567  0.43680  0.54600  Biso   1.000  N
  N9       1.0000 0.11600  0.51630  0.54940  Biso   1.000  N
  N10      1.0000 0.08731  0.60240  0.61020  Biso   1.000  N
  N11      1.0000 0.11262  0.51660  0.42850  Biso   1.000  N
  N12      1.0000 0.08116  0.60170  0.37170  Biso   1.000  N
  Pd1      1.0000 0.15347  0.47404  0.48745  Biso   1.000  Pd
  C37      1.0000 0.22590  0.02850  0.40680  Biso   1.000  C
  H39      1.0000 0.23760  0.98200  0.42340  Biso   1.000  H
  C38      1.0000 0.18510  0.13190  0.38990  Biso   1.000  C
  H40      1.0000 0.16280  0.16920  0.39270  Biso   1.000  H
  C39      1.0000 0.21650  0.13450  0.35140  Biso   1.000  C
  H41      1.0000 0.22010  0.17380  0.32340  Biso   1.000  H
  C40      1.0000 0.27880  0.04230  0.33080  Biso   1.000  C
  C41      1.0000 0.28120  0.06210  0.27380  Biso   1.000  C
  H42      1.0000 0.25920  0.09080  0.25660  Biso   1.000  H
  C42      1.0000 0.31660  0.03900  0.24210  Biso   1.000  C
  C43      1.0000 0.34810  0.99240  0.26840  Biso   1.000  C
  H43      1.0000 0.37150  0.97470  0.24760  Biso   1.000  H
  C44      1.0000 0.34500  0.97260  0.32470  Biso   1.000  C
  C45      1.0000 0.31050  0.99820  0.35810  Biso   1.000  C
  H44      1.0000 0.30900  0.98640  0.39650  Biso   1.000  H
  C46      1.0000 0.32050  0.06360  0.18110  Biso   1.000  C
  H45      1.0000 0.29580  0.09430  0.17010  Biso   1.000  H
  H46      1.0000 0.34540  0.09680  0.17620  Biso   1.000  H
  H47      1.0000 0.32280  0.01560  0.15790  Biso   1.000  H
  C47      1.0000 0.37060  0.87230  0.39480  Biso   1.000  C
  H48      1.0000 0.34440  0.86390  0.41220  Biso   1.000  H
  C48      1.0000 0.41870  0.91890  0.33720  Biso   1.000  C
  H49      1.0000 0.43220  0.94700  0.30800  Biso   1.000  H
  C49      1.0000 0.43690  0.86510  0.37360  Biso   1.000  C
  H50      1.0000 0.46540  0.85050  0.37440  Biso   1.000  H
  C50      1.0000 0.37740  0.87570  0.54830  Biso   1.000  C
  H51      1.0000 0.35110  0.87410  0.53020  Biso   1.000  H
  C51      1.0000 0.44300  0.85400  0.56990  Biso   1.000  C
  H52      1.0000 0.47070  0.83440  0.56870  Biso   1.000  H
  C52      1.0000 0.42730  0.90560  0.60980  Biso   1.000  C
  H53      1.0000 0.44190  0.92700  0.64070  Biso   1.000  H
  C53      1.0000 0.35490  0.96470  0.62700  Biso   1.000  C
  C54      1.0000 0.31980  0.99520  0.59780  Biso   1.000  C
  H54      1.0000 0.31680  0.98850  0.55890  Biso   1.000  H
  C55      1.0000 0.28940  0.03610  0.62990  Biso   1.000  C
  C56      1.0000 0.29420  0.04750  0.68710  Biso   1.000  C
  H55      1.0000 0.27270  0.07320  0.70750  Biso   1.000  H
  C57      1.0000 0.33060  0.02100  0.71500  Biso   1.000  C
  C58      1.0000 0.36080  0.97820  0.68430  Biso   1.000  C
  H56      1.0000 0.38500  0.95850  0.70220  Biso   1.000  H
  C59      1.0000 0.33690  0.03590  0.77690  Biso   1.000  C
  H57      1.0000 0.36380  0.01370  0.78840  Biso   1.000  H
  H58      1.0000 0.33650  0.09370  0.78420  Biso   1.000  H
  H59      1.0000 0.31450  0.00990  0.79780  Biso   1.000  H
  C60      1.0000 0.22660  0.12890  0.61720  Biso   1.000  C
  H60      1.0000 0.23210  0.16630  0.64590  Biso   1.000  H
  C61      1.0000 0.19280  0.12820  0.58190  Biso   1.000  C
  H61      1.0000 0.17080  0.16640  0.58210  Biso   1.000  H
  C62      1.0000 0.23080  0.02340  0.55930  Biso   1.000  C
  H62      1.0000 0.24040  0.97560  0.54220  Biso   1.000  H
  C63      1.0000 0.07210  0.97300  0.62230  Biso   1.000  C
  H63      1.0000 0.05280  0.98600  0.65090  Biso   1.000  H
  C64      1.0000 0.11440  0.90650  0.56570  Biso   1.000  C
  H64      1.0000 0.12970  0.86410  0.54920  Biso   1.000  H
  C65      1.0000 0.08170  0.82310  0.63960  Biso   1.000  C
  C66      1.0000 0.07300  0.82340  0.69830  Biso   1.000  C
  H65      1.0000 0.07000  0.87240  0.71790  Biso   1.000  H
  H66      1.0000 0.06370  0.69470  0.80340  Biso   1.000  H
  H67      1.0000 0.08690  0.77930  0.80680  Biso   1.000  H
  H68      1.0000 0.03740  0.77600  0.79960  Biso   1.000  H
  C67      1.0000 0.08170  0.02410  0.39890  Biso   1.000  C
  H69      1.0000 0.07500  0.07920  0.40320  Biso   1.000  H
  C68      1.0000 0.06290  0.97350  0.36370  Biso   1.000  C
  H70      1.0000 0.04140  0.98630  0.33820  Biso   1.000  H
  C69      1.0000 0.11160  0.90770  0.41050  Biso   1.000  C
  H71      1.0000 0.12950  0.86620  0.42300  Biso   1.000  H
  C70      1.0000 0.07130  0.82190  0.34480  Biso   1.000  C
  C71      1.0000 0.05250  0.82270  0.29120  Biso   1.000  C
  H72      1.0000 0.04790  0.87230  0.27290  Biso   1.000  H
  H73      1.0000 0.00990  0.80510  0.19910  Biso   1.000  H
  H74      1.0000 0.03510  0.72700  0.18030  Biso   1.000  H
  H75      1.0000 0.99190  0.71790  0.21260  Biso   1.000  H
  C72      1.0000 0.09000  0.02630  0.58520  Biso   1.000  C
  H76      1.0000 0.08530  0.08250  0.58430  Biso   1.000  H
  N13      1.0000 0.19119  0.06480  0.42440  Biso   1.000  N
  N14      1.0000 0.24262  0.06720  0.36170  Biso   1.000  N
  N15      1.0000 0.37649  0.92360  0.35160  Biso   1.000  N
  N16      1.0000 0.40523  0.83530  0.41000  Biso   1.000  N
  N17      1.0000 0.41150  0.83500  0.53110  Biso   1.000  N
  N18      1.0000 0.38560  0.91980  0.59560  Biso   1.000  N
  N19      1.0000 0.25087  0.06380  0.60220  Biso   1.000  N
  N20      1.0000 0.19567  0.06320  0.54600  Biso   1.000  N
  N21      1.0000 0.11600  0.98370  0.54940  Biso   1.000  N
  N22      1.0000 0.08731  0.89760  0.61020  Biso   1.000  N
  N23      1.0000 0.11262  0.98340  0.42850  Biso   1.000  N
  N24      1.0000 0.08116  0.89830  0.37170  Biso   1.000  N
  Pd2      1.0000 0.15347  0.02596  0.48745  Biso   1.000  Pd
  C73      1.0000 0.08460  0.75000  0.60950  Biso   1.000  C
  H77      1.0000 0.08830  0.75000  0.57050  Biso   1.000  H
  C74      1.0000 0.06900  0.75000  0.72560  Biso   1.000  C
  C75      1.0000 0.06380  0.75000  0.78980  Biso   1.000  C
  C76      1.0000 0.08100  0.75000  0.36970  Biso   1.000  C
  H78      1.0000 0.09460  0.75000  0.40460  Biso   1.000  H
  C77      1.0000 0.04080  0.75000  0.26500  Biso   1.000  C
  C78      1.0000 0.01730  0.75000  0.20910  Biso   1.000  C
  Pd3      1.0000 0.41047  0.75000  0.47056  Biso   1.000  Pd
  C79      1.0000 0.27410  0.52850  0.90680  Biso   1.000  C
  H79      1.0000 0.26240  0.48200  0.92340  Biso   1.000  H
  C80      1.0000 0.31490  0.63190  0.88990  Biso   1.000  C
  H80      1.0000 0.33720  0.66920  0.89270  Biso   1.000  H
  C81      1.0000 0.28350  0.63450  0.85140  Biso   1.000  C
  H81      1.0000 0.27990  0.67380  0.82340  Biso   1.000  H
  C82      1.0000 0.22120  0.54230  0.83080  Biso   1.000  C
  C83      1.0000 0.21880  0.56210  0.77380  Biso   1.000  C
  H82      1.0000 0.24080  0.59080  0.75660  Biso   1.000  H
  C84      1.0000 0.18340  0.53900  0.74210  Biso   1.000  C
  C85      1.0000 0.15190  0.49240  0.76840  Biso   1.000  C
  H83      1.0000 0.12850  0.47470  0.74760  Biso   1.000  H
  C86      1.0000 0.15500  0.47260  0.82470  Biso   1.000  C
  C87      1.0000 0.18950  0.49820  0.85810  Biso   1.000  C
  H84      1.0000 0.19100  0.48640  0.89650  Biso   1.000  H
  C88      1.0000 0.17950  0.56360  0.68110  Biso   1.000  C
  H85      1.0000 0.20420  0.59430  0.67010  Biso   1.000  H
  H86      1.0000 0.15460  0.59680  0.67620  Biso   1.000  H
  H87      1.0000 0.17720  0.51560  0.65790  Biso   1.000  H
  C89      1.0000 0.12940  0.37230  0.89480  Biso   1.000  C
  H88      1.0000 0.15560  0.36390  0.91220  Biso   1.000  H
  C90      1.0000 0.08130  0.41890  0.83720  Biso   1.000  C
  H89      1.0000 0.06780  0.44700  0.80800  Biso   1.000  H
  C91      1.0000 0.06310  0.36510  0.87360  Biso   1.000  C
  H90      1.0000 0.03460  0.35050  0.87440  Biso   1.000  H
  C92      1.0000 0.12260  0.37570  0.04830  Biso   1.000  C
  H91      1.0000 0.14890  0.37410  0.03020  Biso   1.000  H
  C93      1.0000 0.05700  0.35400  0.06990  Biso   1.000  C
  H92      1.0000 0.02930  0.33440  0.06870  Biso   1.000  H
  C94      1.0000 0.07270  0.40560  0.10980  Biso   1.000  C
  H93      1.0000 0.05810  0.42700  0.14070  Biso   1.000  H
  C95      1.0000 0.14510  0.46470  0.12700  Biso   1.000  C
  C96      1.0000 0.18020  0.49520  0.09780  Biso   1.000  C
  H94      1.0000 0.18320  0.48850  0.05890  Biso   1.000  H
  C97      1.0000 0.21060  0.53610  0.12990  Biso   1.000  C
  C98      1.0000 0.20580  0.54750  0.18710  Biso   1.000  C
  H95      1.0000 0.22730  0.57320  0.20750  Biso   1.000  H
  C99      1.0000 0.16940  0.52100  0.21500  Biso   1.000  C
  C100     1.0000 0.13920  0.47820  0.18430  Biso   1.000  C
  H96      1.0000 0.11500  0.45850  0.20220  Biso   1.000  H
  C101     1.0000 0.16310  0.53590  0.27690  Biso   1.000  C
  H97      1.0000 0.13620  0.51370  0.28840  Biso   1.000  H
  H98      1.0000 0.16350  0.59370  0.28420  Biso   1.000  H
  H99      1.0000 0.18550  0.50990  0.29780  Biso   1.000  H
  C102     1.0000 0.27340  0.62890  0.11720  Biso   1.000  C
  H100     1.0000 0.26790  0.66630  0.14590  Biso   1.000  H
  C103     1.0000 0.30720  0.62820  0.08190  Biso   1.000  C
  H101     1.0000 0.32920  0.66640  0.08210  Biso   1.000  H
  C104     1.0000 0.26920  0.52340  0.05930  Biso   1.000  C
  H102     1.0000 0.25960  0.47560  0.04220  Biso   1.000  H
  C105     1.0000 0.42790  0.47300  0.12230  Biso   1.000  C
  H103     1.0000 0.44720  0.48600  0.15090  Biso   1.000  H
  C106     1.0000 0.38560  0.40650  0.06570  Biso   1.000  C
  H104     1.0000 0.37030  0.36410  0.04920  Biso   1.000  H
  C107     1.0000 0.41830  0.32310  0.13960  Biso   1.000  C
  C108     1.0000 0.42700  0.32340  0.19830  Biso   1.000  C
  H105     1.0000 0.43000  0.37240  0.21790  Biso   1.000  H
  H106     1.0000 0.43630  0.19470  0.30340  Biso   1.000  H
  H107     1.0000 0.41310  0.27930  0.30680  Biso   1.000  H
  H108     1.0000 0.46260  0.27600  0.29960  Biso   1.000  H
  C109     1.0000 0.41830  0.52410  0.89890  Biso   1.000  C
  H109     1.0000 0.42500  0.57920  0.90320  Biso   1.000  H
  C110     1.0000 0.43710  0.47350  0.86370  Biso   1.000  C
  H110     1.0000 0.45860  0.48630  0.83820  Biso   1.000  H
  C111     1.0000 0.38840  0.40770  0.91050  Biso   1.000  C
  H111     1.0000 0.37050  0.36620  0.92300  Biso   1.000  H
  C112     1.0000 0.42870  0.32190  0.84480  Biso   1.000  C
  C113     1.0000 0.44750  0.32270  0.79120  Biso   1.000  C
  H112     1.0000 0.45210  0.37230  0.77290  Biso   1.000  H
  H113     1.0000 0.49010  0.30510  0.69910  Biso   1.000  H
  H114     1.0000 0.46490  0.22700  0.68030  Biso   1.000  H
  H115     1.0000 0.50810  0.21790  0.71260  Biso   1.000  H
  C114     1.0000 0.41000  0.52630  0.08520  Biso   1.000  C
  H116     1.0000 0.41470  0.58250  0.08430  Biso   1.000  H
  N25      1.0000 0.30881  0.56480  0.92440  Biso   1.000  N
  N26      1.0000 0.25738  0.56720  0.86170  Biso   1.000  N
  N27      1.0000 0.12351  0.42360  0.85160  Biso   1.000  N
  N28      1.0000 0.09477  0.33530  0.91000  Biso   1.000  N
  N29      1.0000 0.08850  0.33500  0.03110  Biso   1.000  N
  N30      1.0000 0.11440  0.41980  0.09560  Biso   1.000  N
  N31      1.0000 0.24913  0.56380  0.10220  Biso   1.000  N
  N32      1.0000 0.30433  0.56320  0.04600  Biso   1.000  N
  N33      1.0000 0.38400  0.48370  0.04940  Biso   1.000  N
  N34      1.0000 0.41269  0.39760  0.11020  Biso   1.000  N
  N35      1.0000 0.38738  0.48340  0.92850  Biso   1.000  N
  N36      1.0000 0.41884  0.39830  0.87170  Biso   1.000  N
  Pd4      1.0000 0.34653  0.52596  0.98745  Biso   1.000  Pd
  C115     1.0000 0.27410  0.97150  0.90680  Biso   1.000  C
  H117     1.0000 0.26240  0.01800  0.92340  Biso   1.000  H
  C116     1.0000 0.31490  0.86810  0.88990  Biso   1.000  C
  H118     1.0000 0.33720  0.83080  0.89270  Biso   1.000  H
  C117     1.0000 0.28350  0.86550  0.85140  Biso   1.000  C
  H119     1.0000 0.27990  0.82620  0.82340  Biso   1.000  H
  C118     1.0000 0.22120  0.95770  0.83080  Biso   1.000  C
  C119     1.0000 0.21880  0.93790  0.77380  Biso   1.000  C
  H120     1.0000 0.24080  0.90920  0.75660  Biso   1.000  H
  C120     1.0000 0.18340  0.96100  0.74210  Biso   1.000  C
  C121     1.0000 0.15190  0.00760  0.76840  Biso   1.000  C
  H121     1.0000 0.12850  0.02530  0.74760  Biso   1.000  H
  C122     1.0000 0.15500  0.02740  0.82470  Biso   1.000  C
  C123     1.0000 0.18950  0.00180  0.85810  Biso   1.000  C
  H122     1.0000 0.19100  0.01360  0.89650  Biso   1.000  H
  C124     1.0000 0.17950  0.93640  0.68110  Biso   1.000  C
  H123     1.0000 0.20420  0.90570  0.67010  Biso   1.000  H
  H124     1.0000 0.15460  0.90320  0.67620  Biso   1.000  H
  H125     1.0000 0.17720  0.98440  0.65790  Biso   1.000  H
  C125     1.0000 0.12940  0.12770  0.89480  Biso   1.000  C
  H126     1.0000 0.15560  0.13610  0.91220  Biso   1.000  H
  C126     1.0000 0.08130  0.08110  0.83720  Biso   1.000  C
  H127     1.0000 0.06780  0.05300  0.80800  Biso   1.000  H
  C127     1.0000 0.06310  0.13490  0.87360  Biso   1.000  C
  H128     1.0000 0.03460  0.14950  0.87440  Biso   1.000  H
  C128     1.0000 0.12260  0.12430  0.04830  Biso   1.000  C
  H129     1.0000 0.14890  0.12590  0.03020  Biso   1.000  H
  C129     1.0000 0.05700  0.14600  0.06990  Biso   1.000  C
  H130     1.0000 0.02930  0.16560  0.06870  Biso   1.000  H
  C130     1.0000 0.07270  0.09440  0.10980  Biso   1.000  C
  H131     1.0000 0.05810  0.07300  0.14070  Biso   1.000  H
  C131     1.0000 0.14510  0.03530  0.12700  Biso   1.000  C
  C132     1.0000 0.18020  0.00480  0.09780  Biso   1.000  C
  H132     1.0000 0.18320  0.01150  0.05890  Biso   1.000  H
  C133     1.0000 0.21060  0.96390  0.12990  Biso   1.000  C
  C134     1.0000 0.20580  0.95250  0.18710  Biso   1.000  C
  H133     1.0000 0.22730  0.92680  0.20750  Biso   1.000  H
  C135     1.0000 0.16940  0.97900  0.21500  Biso   1.000  C
  C136     1.0000 0.13920  0.02180  0.18430  Biso   1.000  C
  H134     1.0000 0.11500  0.04150  0.20220  Biso   1.000  H
  C137     1.0000 0.16310  0.96410  0.27690  Biso   1.000  C
  H135     1.0000 0.13620  0.98630  0.28840  Biso   1.000  H
  H136     1.0000 0.16350  0.90630  0.28420  Biso   1.000  H
  H137     1.0000 0.18550  0.99010  0.29780  Biso   1.000  H
  C138     1.0000 0.27340  0.87110  0.11720  Biso   1.000  C
  H138     1.0000 0.26790  0.83370  0.14590  Biso   1.000  H
  C139     1.0000 0.30720  0.87180  0.08190  Biso   1.000  C
  H139     1.0000 0.32920  0.83360  0.08210  Biso   1.000  H
  C140     1.0000 0.26920  0.97660  0.05930  Biso   1.000  C
  H140     1.0000 0.25960  0.02440  0.04220  Biso   1.000  H
  C141     1.0000 0.42790  0.02700  0.12230  Biso   1.000  C
  H141     1.0000 0.44720  0.01400  0.15090  Biso   1.000  H
  C142     1.0000 0.38560  0.09350  0.06570  Biso   1.000  C
  H142     1.0000 0.37030  0.13590  0.04920  Biso   1.000  H
  C143     1.0000 0.41830  0.17690  0.13960  Biso   1.000  C
  C144     1.0000 0.42700  0.17660  0.19830  Biso   1.000  C
  H143     1.0000 0.43000  0.12760  0.21790  Biso   1.000  H
  H144     1.0000 0.43630  0.30530  0.30340  Biso   1.000  H
  H145     1.0000 0.41310  0.22070  0.30680  Biso   1.000  H
  H146     1.0000 0.46260  0.22400  0.29960  Biso   1.000  H
  C145     1.0000 0.41830  0.97590  0.89890  Biso   1.000  C
  H147     1.0000 0.42500  0.92080  0.90320  Biso   1.000  H
  C146     1.0000 0.43710  0.02650  0.86370  Biso   1.000  C
  H148     1.0000 0.45860  0.01370  0.83820  Biso   1.000  H
  C147     1.0000 0.38840  0.09230  0.91050  Biso   1.000  C
  H149     1.0000 0.37050  0.13380  0.92300  Biso   1.000  H
  C148     1.0000 0.42870  0.17810  0.84480  Biso   1.000  C
  C149     1.0000 0.44750  0.17730  0.79120  Biso   1.000  C
  H150     1.0000 0.45210  0.12770  0.77290  Biso   1.000  H
  H151     1.0000 0.49010  0.19490  0.69910  Biso   1.000  H
  H152     1.0000 0.46490  0.27300  0.68030  Biso   1.000  H
  H153     1.0000 0.50810  0.28210  0.71260  Biso   1.000  H
  C150     1.0000 0.41000  0.97370  0.08520  Biso   1.000  C
  H154     1.0000 0.41470  0.91750  0.08430  Biso   1.000  H
  N37      1.0000 0.30881  0.93520  0.92440  Biso   1.000  N
  N38      1.0000 0.25738  0.93280  0.86170  Biso   1.000  N
  N39      1.0000 0.12351  0.07640  0.85160  Biso   1.000  N
  N40      1.0000 0.09477  0.16470  0.91000  Biso   1.000  N
  N41      1.0000 0.08850  0.16500  0.03110  Biso   1.000  N
  N42      1.0000 0.11440  0.08020  0.09560  Biso   1.000  N
  N43      1.0000 0.24913  0.93620  0.10220  Biso   1.000  N
  N44      1.0000 0.30433  0.93680  0.04600  Biso   1.000  N
  N45      1.0000 0.38400  0.01630  0.04940  Biso   1.000  N
  N46      1.0000 0.41269  0.10240  0.11020  Biso   1.000  N
  N47      1.0000 0.38738  0.01660  0.92850  Biso   1.000  N
  N48      1.0000 0.41884  0.10170  0.87170  Biso   1.000  N
  Pd5      1.0000 0.34653  0.97404  0.98745  Biso   1.000  Pd
  C151     1.0000 0.41540  0.25000  0.10950  Biso   1.000  C
  H155     1.0000 0.41170  0.25000  0.07050  Biso   1.000  H
  C152     1.0000 0.43100  0.25000  0.22560  Biso   1.000  C
  C153     1.0000 0.43620  0.25000  0.28980  Biso   1.000  C
  C154     1.0000 0.41900  0.25000  0.86970  Biso   1.000  C
  H156     1.0000 0.40540  0.25000  0.90460  Biso   1.000  H
  C155     1.0000 0.45920  0.25000  0.76500  Biso   1.000  C
  C156     1.0000 0.48270  0.25000  0.70910  Biso   1.000  C
  Pd6      1.0000 0.08953  0.25000  0.97056  Biso   1.000  Pd
  C157     1.0000 0.77410  0.97150  0.59320  Biso   1.000  C
  H157     1.0000 0.76240  0.01800  0.57660  Biso   1.000  H
  C158     1.0000 0.81490  0.86810  0.61010  Biso   1.000  C
  H158     1.0000 0.83720  0.83080  0.60730  Biso   1.000  H
  C159     1.0000 0.78350  0.86550  0.64860  Biso   1.000  C
  H159     1.0000 0.77990  0.82620  0.67660  Biso   1.000  H
  C160     1.0000 0.72120  0.95770  0.66920  Biso   1.000  C
  C161     1.0000 0.71880  0.93790  0.72620  Biso   1.000  C
  H160     1.0000 0.74080  0.90920  0.74340  Biso   1.000  H
  C162     1.0000 0.68340  0.96100  0.75790  Biso   1.000  C
  C163     1.0000 0.65190  0.00760  0.73160  Biso   1.000  C
  H161     1.0000 0.62850  0.02530  0.75240  Biso   1.000  H
  C164     1.0000 0.65500  0.02740  0.67530  Biso   1.000  C
  C165     1.0000 0.68950  0.00180  0.64190  Biso   1.000  C
  H162     1.0000 0.69100  0.01360  0.60350  Biso   1.000  H
  C166     1.0000 0.67950  0.93640  0.81890  Biso   1.000  C
  H163     1.0000 0.70420  0.90570  0.82990  Biso   1.000  H
  H164     1.0000 0.65460  0.90320  0.82380  Biso   1.000  H
  H165     1.0000 0.67720  0.98440  0.84210  Biso   1.000  H
  C167     1.0000 0.62940  0.12770  0.60520  Biso   1.000  C
  H166     1.0000 0.65560  0.13610  0.58780  Biso   1.000  H
  C168     1.0000 0.58130  0.08110  0.66280  Biso   1.000  C
  H167     1.0000 0.56780  0.05300  0.69200  Biso   1.000  H
  C169     1.0000 0.56310  0.13490  0.62640  Biso   1.000  C
  H168     1.0000 0.53460  0.14950  0.62560  Biso   1.000  H
  C170     1.0000 0.62260  0.12430  0.45170  Biso   1.000  C
  H169     1.0000 0.64890  0.12590  0.46980  Biso   1.000  H
  C171     1.0000 0.55700  0.14600  0.43010  Biso   1.000  C
  H170     1.0000 0.52930  0.16560  0.43130  Biso   1.000  H
  C172     1.0000 0.57270  0.09440  0.39020  Biso   1.000  C
  H171     1.0000 0.55810  0.07300  0.35930  Biso   1.000  H
  C173     1.0000 0.64510  0.03530  0.37300  Biso   1.000  C
  C174     1.0000 0.68020  0.00480  0.40220  Biso   1.000  C
  H172     1.0000 0.68320  0.01150  0.44110  Biso   1.000  H
  C175     1.0000 0.71060  0.96390  0.37010  Biso   1.000  C
  C176     1.0000 0.70580  0.95250  0.31290  Biso   1.000  C
  H173     1.0000 0.72730  0.92680  0.29250  Biso   1.000  H
  C177     1.0000 0.66940  0.97900  0.28500  Biso   1.000  C
  C178     1.0000 0.63920  0.02180  0.31570  Biso   1.000  C
  H174     1.0000 0.61500  0.04150  0.29780  Biso   1.000  H
  C179     1.0000 0.66310  0.96410  0.22310  Biso   1.000  C
  H175     1.0000 0.63620  0.98630  0.21160  Biso   1.000  H
  H176     1.0000 0.66350  0.90630  0.21580  Biso   1.000  H
  H177     1.0000 0.68550  0.99010  0.20220  Biso   1.000  H
  C180     1.0000 0.77340  0.87110  0.38280  Biso   1.000  C
  H178     1.0000 0.76790  0.83370  0.35410  Biso   1.000  H
  C181     1.0000 0.80720  0.87180  0.41810  Biso   1.000  C
  H179     1.0000 0.82920  0.83360  0.41790  Biso   1.000  H
  C182     1.0000 0.76920  0.97660  0.44070  Biso   1.000  C
  H180     1.0000 0.75960  0.02440  0.45780  Biso   1.000  H
  C183     1.0000 0.92790  0.02700  0.37770  Biso   1.000  C
  H181     1.0000 0.94720  0.01400  0.34910  Biso   1.000  H
  C184     1.0000 0.88560  0.09350  0.43430  Biso   1.000  C
  H182     1.0000 0.87030  0.13590  0.45080  Biso   1.000  H
  C185     1.0000 0.91830  0.17690  0.36040  Biso   1.000  C
  C186     1.0000 0.92700  0.17660  0.30170  Biso   1.000  C
  H183     1.0000 0.93000  0.12760  0.28210  Biso   1.000  H
  H184     1.0000 0.93630  0.30530  0.19660  Biso   1.000  H
  H185     1.0000 0.91310  0.22070  0.19320  Biso   1.000  H
  H186     1.0000 0.96260  0.22400  0.20040  Biso   1.000  H
  C187     1.0000 0.91830  0.97590  0.60110  Biso   1.000  C
  H187     1.0000 0.92500  0.92080  0.59680  Biso   1.000  H
  C188     1.0000 0.93710  0.02650  0.63630  Biso   1.000  C
  H188     1.0000 0.95860  0.01370  0.66180  Biso   1.000  H
  C189     1.0000 0.88840  0.09230  0.58950  Biso   1.000  C
  H189     1.0000 0.87050  0.13380  0.57700  Biso   1.000  H
  C190     1.0000 0.92870  0.17810  0.65520  Biso   1.000  C
  C191     1.0000 0.94750  0.17730  0.70880  Biso   1.000  C
  H190     1.0000 0.95210  0.12770  0.72710  Biso   1.000  H
  H191     1.0000 0.99010  0.19490  0.80090  Biso   1.000  H
  H192     1.0000 0.96490  0.27300  0.81970  Biso   1.000  H
  H193     1.0000 0.00810  0.28210  0.78740  Biso   1.000  H
  C192     1.0000 0.91000  0.97370  0.41480  Biso   1.000  C
  H194     1.0000 0.91470  0.91750  0.41570  Biso   1.000  H
  N49      1.0000 0.80881  0.93520  0.57560  Biso   1.000  N
  N50      1.0000 0.75738  0.93280  0.63830  Biso   1.000  N
  N51      1.0000 0.62351  0.07640  0.64840  Biso   1.000  N
  N52      1.0000 0.59477  0.16470  0.59000  Biso   1.000  N
  N53      1.0000 0.58850  0.16500  0.46890  Biso   1.000  N
  N54      1.0000 0.61440  0.08020  0.40440  Biso   1.000  N
  N55      1.0000 0.74913  0.93620  0.39780  Biso   1.000  N
  N56      1.0000 0.80433  0.93680  0.45400  Biso   1.000  N
  N57      1.0000 0.88400  0.01630  0.45060  Biso   1.000  N
  N58      1.0000 0.91269  0.10240  0.38980  Biso   1.000  N
  N59      1.0000 0.88738  0.01660  0.57150  Biso   1.000  N
  N60      1.0000 0.91884  0.10170  0.62830  Biso   1.000  N
  Pd7      1.0000 0.84653  0.97404  0.51255  Biso   1.000  Pd
  C193     1.0000 0.77410  0.52850  0.59320  Biso   1.000  C
  H195     1.0000 0.76240  0.48200  0.57660  Biso   1.000  H
  C194     1.0000 0.81490  0.63190  0.61010  Biso   1.000  C
  H196     1.0000 0.83720  0.66920  0.60730  Biso   1.000  H
  C195     1.0000 0.78350  0.63450  0.64860  Biso   1.000  C
  H197     1.0000 0.77990  0.67380  0.67660  Biso   1.000  H
  C196     1.0000 0.72120  0.54230  0.66920  Biso   1.000  C
  C197     1.0000 0.71880  0.56210  0.72620  Biso   1.000  C
  H198     1.0000 0.74080  0.59080  0.74340  Biso   1.000  H
  C198     1.0000 0.68340  0.53900  0.75790  Biso   1.000  C
  C199     1.0000 0.65190  0.49240  0.73160  Biso   1.000  C
  H199     1.0000 0.62850  0.47470  0.75240  Biso   1.000  H
  C200     1.0000 0.65500  0.47260  0.67530  Biso   1.000  C
  C201     1.0000 0.68950  0.49820  0.64190  Biso   1.000  C
  H200     1.0000 0.69100  0.48640  0.60350  Biso   1.000  H
  C202     1.0000 0.67950  0.56360  0.81890  Biso   1.000  C
  H201     1.0000 0.70420  0.59430  0.82990  Biso   1.000  H
  H202     1.0000 0.65460  0.59680  0.82380  Biso   1.000  H
  H203     1.0000 0.67720  0.51560  0.84210  Biso   1.000  H
  C203     1.0000 0.62940  0.37230  0.60520  Biso   1.000  C
  H204     1.0000 0.65560  0.36390  0.58780  Biso   1.000  H
  C204     1.0000 0.58130  0.41890  0.66280  Biso   1.000  C
  H205     1.0000 0.56780  0.44700  0.69200  Biso   1.000  H
  C205     1.0000 0.56310  0.36510  0.62640  Biso   1.000  C
  H206     1.0000 0.53460  0.35050  0.62560  Biso   1.000  H
  C206     1.0000 0.62260  0.37570  0.45170  Biso   1.000  C
  H207     1.0000 0.64890  0.37410  0.46980  Biso   1.000  H
  C207     1.0000 0.55700  0.35400  0.43010  Biso   1.000  C
  H208     1.0000 0.52930  0.33440  0.43130  Biso   1.000  H
  C208     1.0000 0.57270  0.40560  0.39020  Biso   1.000  C
  H209     1.0000 0.55810  0.42700  0.35930  Biso   1.000  H
  C209     1.0000 0.64510  0.46470  0.37300  Biso   1.000  C
  C210     1.0000 0.68020  0.49520  0.40220  Biso   1.000  C
  H210     1.0000 0.68320  0.48850  0.44110  Biso   1.000  H
  C211     1.0000 0.71060  0.53610  0.37010  Biso   1.000  C
  C212     1.0000 0.70580  0.54750  0.31290  Biso   1.000  C
  H211     1.0000 0.72730  0.57320  0.29250  Biso   1.000  H
  C213     1.0000 0.66940  0.52100  0.28500  Biso   1.000  C
  C214     1.0000 0.63920  0.47820  0.31570  Biso   1.000  C
  H212     1.0000 0.61500  0.45850  0.29780  Biso   1.000  H
  C215     1.0000 0.66310  0.53590  0.22310  Biso   1.000  C
  H213     1.0000 0.63620  0.51370  0.21160  Biso   1.000  H
  H214     1.0000 0.66350  0.59370  0.21580  Biso   1.000  H
  H215     1.0000 0.68550  0.50990  0.20220  Biso   1.000  H
  C216     1.0000 0.77340  0.62890  0.38280  Biso   1.000  C
  H216     1.0000 0.76790  0.66630  0.35410  Biso   1.000  H
  C217     1.0000 0.80720  0.62820  0.41810  Biso   1.000  C
  H217     1.0000 0.82920  0.66640  0.41790  Biso   1.000  H
  C218     1.0000 0.76920  0.52340  0.44070  Biso   1.000  C
  H218     1.0000 0.75960  0.47560  0.45780  Biso   1.000  H
  C219     1.0000 0.92790  0.47300  0.37770  Biso   1.000  C
  H219     1.0000 0.94720  0.48600  0.34910  Biso   1.000  H
  C220     1.0000 0.88560  0.40650  0.43430  Biso   1.000  C
  H220     1.0000 0.87030  0.36410  0.45080  Biso   1.000  H
  C221     1.0000 0.91830  0.32310  0.36040  Biso   1.000  C
  C222     1.0000 0.92700  0.32340  0.30170  Biso   1.000  C
  H221     1.0000 0.93000  0.37240  0.28210  Biso   1.000  H
  H222     1.0000 0.93630  0.19470  0.19660  Biso   1.000  H
  H223     1.0000 0.91310  0.27930  0.19320  Biso   1.000  H
  H224     1.0000 0.96260  0.27600  0.20040  Biso   1.000  H
  C223     1.0000 0.91830  0.52410  0.60110  Biso   1.000  C
  H225     1.0000 0.92500  0.57920  0.59680  Biso   1.000  H
  C224     1.0000 0.93710  0.47350  0.63630  Biso   1.000  C
  H226     1.0000 0.95860  0.48630  0.66180  Biso   1.000  H
  C225     1.0000 0.88840  0.40770  0.58950  Biso   1.000  C
  H227     1.0000 0.87050  0.36620  0.57700  Biso   1.000  H
  C226     1.0000 0.92870  0.32190  0.65520  Biso   1.000  C
  C227     1.0000 0.94750  0.32270  0.70880  Biso   1.000  C
  H228     1.0000 0.95210  0.37230  0.72710  Biso   1.000  H
  H229     1.0000 0.99010  0.30510  0.80090  Biso   1.000  H
  H230     1.0000 0.96490  0.22700  0.81970  Biso   1.000  H
  H231     1.0000 0.00810  0.21790  0.78740  Biso   1.000  H
  C228     1.0000 0.91000  0.52630  0.41480  Biso   1.000  C
  H232     1.0000 0.91470  0.58250  0.41570  Biso   1.000  H
  N61      1.0000 0.80881  0.56480  0.57560  Biso   1.000  N
  N62      1.0000 0.75738  0.56720  0.63830  Biso   1.000  N
  N63      1.0000 0.62351  0.42360  0.64840  Biso   1.000  N
  N64      1.0000 0.59477  0.33530  0.59000  Biso   1.000  N
  N65      1.0000 0.58850  0.33500  0.46890  Biso   1.000  N
  N66      1.0000 0.61440  0.41980  0.40440  Biso   1.000  N
  N67      1.0000 0.74913  0.56380  0.39780  Biso   1.000  N
  N68      1.0000 0.80433  0.56320  0.45400  Biso   1.000  N
  N69      1.0000 0.88400  0.48370  0.45060  Biso   1.000  N
  N70      1.0000 0.91269  0.39760  0.38980  Biso   1.000  N
  N71      1.0000 0.88738  0.48340  0.57150  Biso   1.000  N
  N72      1.0000 0.91884  0.39830  0.62830  Biso   1.000  N
  Pd8      1.0000 0.84653  0.52596  0.51255  Biso   1.000  Pd
  C229     1.0000 0.91540  0.25000  0.39050  Biso   1.000  C
  H233     1.0000 0.91170  0.25000  0.42950  Biso   1.000  H
  C230     1.0000 0.93100  0.25000  0.27440  Biso   1.000  C
  C231     1.0000 0.93620  0.25000  0.21020  Biso   1.000  C
  C232     1.0000 0.91900  0.25000  0.63030  Biso   1.000  C
  H234     1.0000 0.90540  0.25000  0.59540  Biso   1.000  H
  C233     1.0000 0.95920  0.25000  0.73500  Biso   1.000  C
  C234     1.0000 0.98270  0.25000  0.79090  Biso   1.000  C
  Pd9      1.0000 0.58953  0.25000  0.52944  Biso   1.000  Pd
  C235     1.0000 0.72590  0.02850  0.09320  Biso   1.000  C
  H235     1.0000 0.73760  0.98200  0.07660  Biso   1.000  H
  C236     1.0000 0.68510  0.13190  0.11010  Biso   1.000  C
  H236     1.0000 0.66280  0.16920  0.10730  Biso   1.000  H
  C237     1.0000 0.71650  0.13450  0.14860  Biso   1.000  C
  H237     1.0000 0.72010  0.17380  0.17660  Biso   1.000  H
  C238     1.0000 0.77880  0.04230  0.16920  Biso   1.000  C
  C239     1.0000 0.78120  0.06210  0.22620  Biso   1.000  C
  H238     1.0000 0.75920  0.09080  0.24340  Biso   1.000  H
  C240     1.0000 0.81660  0.03900  0.25790  Biso   1.000  C
  C241     1.0000 0.84810  0.99240  0.23160  Biso   1.000  C
  H239     1.0000 0.87150  0.97470  0.25240  Biso   1.000  H
  C242     1.0000 0.84500  0.97260  0.17530  Biso   1.000  C
  C243     1.0000 0.81050  0.99820  0.14190  Biso   1.000  C
  H240     1.0000 0.80900  0.98640  0.10350  Biso   1.000  H
  C244     1.0000 0.82050  0.06360  0.31890  Biso   1.000  C
  H241     1.0000 0.79580  0.09430  0.32990  Biso   1.000  H
  H242     1.0000 0.84540  0.09680  0.32380  Biso   1.000  H
  H243     1.0000 0.82280  0.01560  0.34210  Biso   1.000  H
  C245     1.0000 0.87060  0.87230  0.10520  Biso   1.000  C
  H244     1.0000 0.84440  0.86390  0.08780  Biso   1.000  H
  C246     1.0000 0.91870  0.91890  0.16280  Biso   1.000  C
  H245     1.0000 0.93220  0.94700  0.19200  Biso   1.000  H
  C247     1.0000 0.93690  0.86510  0.12640  Biso   1.000  C
  H246     1.0000 0.96540  0.85050  0.12560  Biso   1.000  H
  C248     1.0000 0.87740  0.87570  0.95170  Biso   1.000  C
  H247     1.0000 0.85110  0.87410  0.96980  Biso   1.000  H
  C249     1.0000 0.94300  0.85400  0.93010  Biso   1.000  C
  H248     1.0000 0.97070  0.83440  0.93130  Biso   1.000  H
  C250     1.0000 0.92730  0.90560  0.89020  Biso   1.000  C
  H249     1.0000 0.94190  0.92700  0.85930  Biso   1.000  H
  C251     1.0000 0.85490  0.96470  0.87300  Biso   1.000  C
  C252     1.0000 0.81980  0.99520  0.90220  Biso   1.000  C
  H250     1.0000 0.81680  0.98850  0.94110  Biso   1.000  H
  C253     1.0000 0.78940  0.03610  0.87010  Biso   1.000  C
  C254     1.0000 0.79420  0.04750  0.81290  Biso   1.000  C
  H251     1.0000 0.77270  0.07320  0.79250  Biso   1.000  H
  C255     1.0000 0.83060  0.02100  0.78500  Biso   1.000  C
  C256     1.0000 0.86080  0.97820  0.81570  Biso   1.000  C
  H252     1.0000 0.88500  0.95850  0.79780  Biso   1.000  H
  C257     1.0000 0.83690  0.03590  0.72310  Biso   1.000  C
  H253     1.0000 0.86380  0.01370  0.71160  Biso   1.000  H
  H254     1.0000 0.83650  0.09370  0.71580  Biso   1.000  H
  H255     1.0000 0.81450  0.00990  0.70220  Biso   1.000  H
  C258     1.0000 0.72660  0.12890  0.88280  Biso   1.000  C
  H256     1.0000 0.73210  0.16630  0.85410  Biso   1.000  H
  C259     1.0000 0.69280  0.12820  0.91810  Biso   1.000  C
  H257     1.0000 0.67080  0.16640  0.91790  Biso   1.000  H
  C260     1.0000 0.73080  0.02340  0.94070  Biso   1.000  C
  H258     1.0000 0.74040  0.97560  0.95780  Biso   1.000  H
  C261     1.0000 0.57210  0.97300  0.87770  Biso   1.000  C
  H259     1.0000 0.55280  0.98600  0.84910  Biso   1.000  H
  C262     1.0000 0.61440  0.90650  0.93430  Biso   1.000  C
  H260     1.0000 0.62970  0.86410  0.95080  Biso   1.000  H
  C263     1.0000 0.58170  0.82310  0.86040  Biso   1.000  C
  C264     1.0000 0.57300  0.82340  0.80170  Biso   1.000  C
  H261     1.0000 0.57000  0.87240  0.78210  Biso   1.000  H
  H262     1.0000 0.56370  0.69470  0.69660  Biso   1.000  H
  H263     1.0000 0.58690  0.77930  0.69320  Biso   1.000  H
  H264     1.0000 0.53740  0.77600  0.70040  Biso   1.000  H
  C265     1.0000 0.58170  0.02410  0.10110  Biso   1.000  C
  H265     1.0000 0.57500  0.07920  0.09680  Biso   1.000  H
  C266     1.0000 0.56290  0.97350  0.13630  Biso   1.000  C
  H266     1.0000 0.54140  0.98630  0.16180  Biso   1.000  H
  C267     1.0000 0.61160  0.90770  0.08950  Biso   1.000  C
  H267     1.0000 0.62950  0.86620  0.07700  Biso   1.000  H
  C268     1.0000 0.57130  0.82190  0.15520  Biso   1.000  C
  C269     1.0000 0.55250  0.82270  0.20880  Biso   1.000  C
  H268     1.0000 0.54790  0.87230  0.22710  Biso   1.000  H
  H269     1.0000 0.50990  0.80510  0.30090  Biso   1.000  H
  H270     1.0000 0.53510  0.72700  0.31970  Biso   1.000  H
  H271     1.0000 0.49190  0.71790  0.28740  Biso   1.000  H
  C270     1.0000 0.59000  0.02630  0.91480  Biso   1.000  C
  H272     1.0000 0.58530  0.08250  0.91570  Biso   1.000  H
  N73      1.0000 0.69119  0.06480  0.07560  Biso   1.000  N
  N74      1.0000 0.74262  0.06720  0.13830  Biso   1.000  N
  N75      1.0000 0.87649  0.92360  0.14840  Biso   1.000  N
  N76      1.0000 0.90523  0.83530  0.09000  Biso   1.000  N
  N77      1.0000 0.91150  0.83500  0.96890  Biso   1.000  N
  N78      1.0000 0.88560  0.91980  0.90440  Biso   1.000  N
  N79      1.0000 0.75087  0.06380  0.89780  Biso   1.000  N
  N80      1.0000 0.69567  0.06320  0.95400  Biso   1.000  N
  N81      1.0000 0.61600  0.98370  0.95060  Biso   1.000  N
  N82      1.0000 0.58731  0.89760  0.88980  Biso   1.000  N
  N83      1.0000 0.61262  0.98340  0.07150  Biso   1.000  N
  N84      1.0000 0.58116  0.89830  0.12830  Biso   1.000  N
  Pd10     1.0000 0.65347  0.02596  0.01255  Biso   1.000  Pd
  C271     1.0000 0.72590  0.47150  0.09320  Biso   1.000  C
  H273     1.0000 0.73760  0.51800  0.07660  Biso   1.000  H
  C272     1.0000 0.68510  0.36810  0.11010  Biso   1.000  C
  H274     1.0000 0.66280  0.33080  0.10730  Biso   1.000  H
  C273     1.0000 0.71650  0.36550  0.14860  Biso   1.000  C
  H275     1.0000 0.72010  0.32620  0.17660  Biso   1.000  H
  C274     1.0000 0.77880  0.45770  0.16920  Biso   1.000  C
  C275     1.0000 0.78120  0.43790  0.22620  Biso   1.000  C
  H276     1.0000 0.75920  0.40920  0.24340  Biso   1.000  H
  C276     1.0000 0.81660  0.46100  0.25790  Biso   1.000  C
  C277     1.0000 0.84810  0.50760  0.23160  Biso   1.000  C
  H277     1.0000 0.87150  0.52530  0.25240  Biso   1.000  H
  C278     1.0000 0.84500  0.52740  0.17530  Biso   1.000  C
  C279     1.0000 0.81050  0.50180  0.14190  Biso   1.000  C
  H278     1.0000 0.80900  0.51360  0.10350  Biso   1.000  H
  C280     1.0000 0.82050  0.43640  0.31890  Biso   1.000  C
  H279     1.0000 0.79580  0.40570  0.32990  Biso   1.000  H
  H280     1.0000 0.84540  0.40320  0.32380  Biso   1.000  H
  H281     1.0000 0.82280  0.48440  0.34210  Biso   1.000  H
  C281     1.0000 0.87060  0.62770  0.10520  Biso   1.000  C
  H282     1.0000 0.84440  0.63610  0.08780  Biso   1.000  H
  C282     1.0000 0.91870  0.58110  0.16280  Biso   1.000  C
  H283     1.0000 0.93220  0.55300  0.19200  Biso   1.000  H
  C283     1.0000 0.93690  0.63490  0.12640  Biso   1.000  C
  H284     1.0000 0.96540  0.64950  0.12560  Biso   1.000  H
  C284     1.0000 0.87740  0.62430  0.95170  Biso   1.000  C
  H285     1.0000 0.85110  0.62590  0.96980  Biso   1.000  H
  C285     1.0000 0.94300  0.64600  0.93010  Biso   1.000  C
  H286     1.0000 0.97070  0.66560  0.93130  Biso   1.000  H
  C286     1.0000 0.92730  0.59440  0.89020  Biso   1.000  C
  H287     1.0000 0.94190  0.57300  0.85930  Biso   1.000  H
  C287     1.0000 0.85490  0.53530  0.87300  Biso   1.000  C
  C288     1.0000 0.81980  0.50480  0.90220  Biso   1.000  C
  H288     1.0000 0.81680  0.51150  0.94110  Biso   1.000  H
  C289     1.0000 0.78940  0.46390  0.87010  Biso   1.000  C
  C290     1.0000 0.79420  0.45250  0.81290  Biso   1.000  C
  H289     1.0000 0.77270  0.42680  0.79250  Biso   1.000  H
  C291     1.0000 0.83060  0.47900  0.78500  Biso   1.000  C
  C292     1.0000 0.86080  0.52180  0.81570  Biso   1.000  C
  H290     1.0000 0.88500  0.54150  0.79780  Biso   1.000  H
  C293     1.0000 0.83690  0.46410  0.72310  Biso   1.000  C
  H291     1.0000 0.86380  0.48630  0.71160  Biso   1.000  H
  H292     1.0000 0.83650  0.40630  0.71580  Biso   1.000  H
  H293     1.0000 0.81450  0.49010  0.70220  Biso   1.000  H
  C294     1.0000 0.72660  0.37110  0.88280  Biso   1.000  C
  H294     1.0000 0.73210  0.33370  0.85410  Biso   1.000  H
  C295     1.0000 0.69280  0.37180  0.91810  Biso   1.000  C
  H295     1.0000 0.67080  0.33360  0.91790  Biso   1.000  H
  C296     1.0000 0.73080  0.47660  0.94070  Biso   1.000  C
  H296     1.0000 0.74040  0.52440  0.95780  Biso   1.000  H
  C297     1.0000 0.57210  0.52700  0.87770  Biso   1.000  C
  H297     1.0000 0.55280  0.51400  0.84910  Biso   1.000  H
  C298     1.0000 0.61440  0.59350  0.93430  Biso   1.000  C
  H298     1.0000 0.62970  0.63590  0.95080  Biso   1.000  H
  C299     1.0000 0.58170  0.67690  0.86040  Biso   1.000  C
  C300     1.0000 0.57300  0.67660  0.80170  Biso   1.000  C
  H299     1.0000 0.57000  0.62760  0.78210  Biso   1.000  H
  H300     1.0000 0.56370  0.80530  0.69660  Biso   1.000  H
  H301     1.0000 0.58690  0.72070  0.69320  Biso   1.000  H
  H302     1.0000 0.53740  0.72400  0.70040  Biso   1.000  H
  C301     1.0000 0.58170  0.47590  0.10110  Biso   1.000  C
  H303     1.0000 0.57500  0.42080  0.09680  Biso   1.000  H
  C302     1.0000 0.56290  0.52650  0.13630  Biso   1.000  C
  H304     1.0000 0.54140  0.51370  0.16180  Biso   1.000  H
  C303     1.0000 0.61160  0.59230  0.08950  Biso   1.000  C
  H305     1.0000 0.62950  0.63380  0.07700  Biso   1.000  H
  C304     1.0000 0.57130  0.67810  0.15520  Biso   1.000  C
  C305     1.0000 0.55250  0.67730  0.20880  Biso   1.000  C
  H306     1.0000 0.54790  0.62770  0.22710  Biso   1.000  H
  H307     1.0000 0.50990  0.69490  0.30090  Biso   1.000  H
  H308     1.0000 0.53510  0.77300  0.31970  Biso   1.000  H
  H309     1.0000 0.49190  0.78210  0.28740  Biso   1.000  H
  C306     1.0000 0.59000  0.47370  0.91480  Biso   1.000  C
  H310     1.0000 0.58530  0.41750  0.91570  Biso   1.000  H
  N85      1.0000 0.69119  0.43520  0.07560  Biso   1.000  N
  N86      1.0000 0.74262  0.43280  0.13830  Biso   1.000  N
  N87      1.0000 0.87649  0.57640  0.14840  Biso   1.000  N
  N88      1.0000 0.90523  0.66470  0.09000  Biso   1.000  N
  N89      1.0000 0.91150  0.66500  0.96890  Biso   1.000  N
  N90      1.0000 0.88560  0.58020  0.90440  Biso   1.000  N
  N91      1.0000 0.75087  0.43620  0.89780  Biso   1.000  N
  N92      1.0000 0.69567  0.43680  0.95400  Biso   1.000  N
  N93      1.0000 0.61600  0.51630  0.95060  Biso   1.000  N
  N94      1.0000 0.58731  0.60240  0.88980  Biso   1.000  N
  N95      1.0000 0.61262  0.51660  0.07150  Biso   1.000  N
  N96      1.0000 0.58116  0.60170  0.12830  Biso   1.000  N
  Pd11     1.0000 0.65347  0.47404  0.01255  Biso   1.000  Pd
  C307     1.0000 0.58460  0.75000  0.89050  Biso   1.000  C
  H311     1.0000 0.58830  0.75000  0.92950  Biso   1.000  H
  C308     1.0000 0.56900  0.75000  0.77440  Biso   1.000  C
  C309     1.0000 0.56380  0.75000  0.71020  Biso   1.000  C
  C310     1.0000 0.58100  0.75000  0.13030  Biso   1.000  C
  H312     1.0000 0.59460  0.75000  0.09540  Biso   1.000  H
  C311     1.0000 0.54080  0.75000  0.23500  Biso   1.000  C
  C312     1.0000 0.51730  0.75000  0.29090  Biso   1.000  C
  Pd12     1.0000 0.91047  0.75000  0.02944  Biso   1.000  Pd
