data_image0
_cell_length_a       16.7257
_cell_length_b       30.6684
_cell_length_c       26.6752
_cell_angle_alpha    90
_cell_angle_beta     90.025
_cell_angle_gamma    90

_symmetry_space_group_name_H-M    "P 1"
_symmetry_int_tables_number       1

loop_
  _symmetry_equiv_pos_as_xyz
  'x, y, z'

loop_
  _atom_site_label
  _atom_site_occupancy
  _atom_site_fract_x
  _atom_site_fract_y
  _atom_site_fract_z
  _atom_site_thermal_displace_type
  _atom_site_B_iso_or_equiv
  _atom_site_type_symbol
  Zn1      1.0000 0.24910  0.68718  0.48371  Biso   1.000  Zn
  Zn2      1.0000 0.30707  0.80037  0.53267  Biso   1.000  Zn
  Zn3      1.0000 0.32102  0.91662  0.48338  Biso   1.000  Zn
  Zn4      1.0000 0.27688  0.97151  0.35587  Biso   1.000  Zn
  Zn5      1.0000 0.20186  0.93131  0.22763  Biso   1.000  Zn
  Zn6      1.0000 0.14433  0.82016  0.17777  Biso   1.000  Zn
  Zn7      1.0000 0.13401  0.70443  0.23027  Biso   1.000  Zn
  Zn8      1.0000 0.17761  0.64708  0.35548  Biso   1.000  Zn
  O1       1.0000 0.34590  0.67371  0.43728  Biso   1.000  O
  O2       1.0000 0.31850  0.74184  0.49713  Biso   1.000  O
  O3       1.0000 0.41530  0.81175  0.49947  Biso   1.000  O
  O4       1.0000 0.42650  0.88514  0.46914  Biso   1.000  O
  O5       1.0000 0.34140  0.94114  0.41234  Biso   1.000  O
  O6       1.0000 0.37120  0.95205  0.31429  Biso   1.000  O
  O7       1.0000 0.32490  0.92679  0.23341  Biso   1.000  O
  O8       1.0000 0.21660  0.87155  0.19533  Biso   1.000  O
  O9       1.0000 0.25350  0.78938  0.16961  Biso   1.000  O
  O10      1.0000 0.24640  0.71630  0.20283  Biso   1.000  O
  O11      1.0000 0.19690  0.67307  0.28516  Biso   1.000  O
  O12      1.0000 0.29910  0.64770  0.35707  Biso   1.000  O
  O13      1.0000 0.15010  0.72042  0.50969  Biso   1.000  O
  O14      1.0000 0.17090  0.67306  0.42605  Biso   1.000  O
  O15      1.0000 0.06080  0.66986  0.35320  Biso   1.000  O
  O16      1.0000 0.03630  0.70703  0.27518  Biso   1.000  O
  O17      1.0000 0.10250  0.76743  0.21569  Biso   1.000  O
  O18      1.0000 0.04740  0.84926  0.21075  Biso   1.000  O
  O19      1.0000 0.08230  0.92084  0.24084  Biso   1.000  O
  O20      1.0000 0.19770  0.95451  0.29963  Biso   1.000  O
  O21      1.0000 0.17550  0.96744  0.39831  Biso   1.000  O
  O22      1.0000 0.20310  0.93352  0.47780  Biso   1.000  O
  O23      1.0000 0.27170  0.86226  0.51541  Biso   1.000  O
  O24      1.0000 0.18700  0.79101  0.54180  Biso   1.000  O
  N1       1.0000 0.33850  0.80307  0.60643  Biso   1.000  N
  C1       1.0000 0.29890  0.83308  0.63384  Biso   1.000  C
  H1       1.0000 0.25930  0.85010  0.61740  Biso   1.000  H
  C2       1.0000 0.31200  0.84070  0.68391  Biso   1.000  C
  H2       1.0000 0.28290  0.86230  0.70170  Biso   1.000  H
  C3       1.0000 0.36780  0.81610  0.70640  Biso   1.000  C
  H3       1.0000 0.37830  0.82060  0.74100  Biso   1.000  H
  C4       1.0000 0.40980  0.78520  0.68131  Biso   1.000  C
  H4       1.0000 0.44830  0.76780  0.69810  Biso   1.000  H
  C5       1.0000 0.39460  0.77952  0.62936  Biso   1.000  C
  C6       1.0000 0.43840  0.74797  0.59880  Biso   1.000  C
  H5       1.0000 0.42430  0.74620  0.56440  Biso   1.000  H
  C7       1.0000 0.49590  0.72155  0.61450  Biso   1.000  C
  H6       1.0000 0.50750  0.72180  0.64940  Biso   1.000  H
  C8       1.0000 0.54320  0.69204  0.58330  Biso   1.000  C
  C9       1.0000 0.52170  0.68170  0.53460  Biso   1.000  C
  H7       1.0000 0.47480  0.69390  0.52020  Biso   1.000  H
  C10      1.0000 0.56850  0.65390  0.50740  Biso   1.000  C
  H8       1.0000 0.55290  0.64590  0.47440  Biso   1.000  H
  C11      1.0000 0.63760  0.63740  0.52720  Biso   1.000  C
  H9       1.0000 0.67130  0.61890  0.50800  Biso   1.000  H
  C12      1.0000 0.65710  0.64870  0.57620  Biso   1.000  C
  H10      1.0000 0.70520  0.63780  0.59040  Biso   1.000  H
  N2       1.0000 0.60990  0.67457  0.60411  Biso   1.000  N
  N3       1.0000 0.36160  0.95467  0.54380  Biso   1.000  N
  C13      1.0000 0.32700  0.94390  0.58800  Biso   1.000  C
  H11      1.0000 0.28820  0.92130  0.58690  Biso   1.000  H
  C14      1.0000 0.34140  0.96190  0.63420  Biso   1.000  C
  H12      1.0000 0.31320  0.95330  0.66350  Biso   1.000  H
  C15      1.0000 0.39830  0.99230  0.63470  Biso   1.000  C
  H13      1.0000 0.41350  0.00430  0.66610  Biso   1.000  H
  C16      1.0000 0.43550  0.00690  0.59300  Biso   1.000  C
  H14      1.0000 0.46890  0.03200  0.59370  Biso   1.000  H
  C17      1.0000 0.42210  0.98270  0.54780  Biso   1.000  C
  N4       1.0000 0.27680  0.03931  0.35659  Biso   1.000  N
  C18      1.0000 0.25090  0.05665  0.40005  Biso   1.000  C
  H15      1.0000 0.25090  0.03880  0.42910  Biso   1.000  H
  C19      1.0000 0.22450  0.09876  0.40434  Biso   1.000  C
  H16      1.0000 0.20820  0.11000  0.43590  Biso   1.000  H
  C20      1.0000 0.22230  0.12423  0.36240  Biso   1.000  C
  H17      1.0000 0.20290  0.15330  0.36420  Biso   1.000  H
  C21      1.0000 0.24820  0.10745  0.31771  Biso   1.000  C
  H18      1.0000 0.24570  0.12480  0.28820  Biso   1.000  H
  C22      1.0000 0.27850  0.06484  0.31513  Biso   1.000  C
  C23      1.0000 0.31370  0.04710  0.26966  Biso   1.000  C
  H19      1.0000 0.33540  0.01850  0.27120  Biso   1.000  H
  C24      1.0000 0.31770  0.06801  0.22604  Biso   1.000  C
  H20      1.0000 0.29270  0.09580  0.22480  Biso   1.000  H
  C25      1.0000 0.35610  0.05324  0.17979  Biso   1.000  C
  C26      1.0000 0.39190  0.01289  0.17390  Biso   1.000  C
  H21      1.0000 0.39300  0.99290  0.20110  Biso   1.000  H
  C27      1.0000 0.42630  0.00147  0.12860  Biso   1.000  C
  H22      1.0000 0.45090  0.97380  0.12450  Biso   1.000  H
  C28      1.0000 0.42430  0.03070  0.08920  Biso   1.000  C
  H23      1.0000 0.44670  0.02350  0.05760  Biso   1.000  H
  C29      1.0000 0.38890  0.07082  0.09730  Biso   1.000  C
  H24      1.0000 0.38770  0.09110  0.07040  Biso   1.000  H
  N5       1.0000 0.35610  0.08242  0.14118  Biso   1.000  N
  N6       1.0000 0.18830  0.97946  0.17595  Biso   1.000  N
  N7       1.0000 0.09340  0.67005  0.16931  Biso   1.000  N
  C30      1.0000 0.11010  0.68679  0.12373  Biso   1.000  C
  H25      1.0000 0.14210  0.71230  0.12190  Biso   1.000  H
  C31      1.0000 0.08320  0.66865  0.07996  Biso   1.000  C
  H26      1.0000 0.09500  0.68190  0.04860  Biso   1.000  H
  C32      1.0000 0.03920  0.63130  0.08200  Biso   1.000  C
  H27      1.0000 0.02080  0.61790  0.05200  Biso   1.000  H
  C33      1.0000 0.02200  0.61333  0.12750  Biso   1.000  C
  H28      1.0000 0.99170  0.58720  0.12930  Biso   1.000  H
  C34      1.0000 0.04880  0.63349  0.17165  Biso   1.000  C
  C35      1.0000 0.01670  0.61870  0.21930  Biso   1.000  C
  H29      1.0000 0.03930  0.62980  0.24950  Biso   1.000  H
  C36      1.0000 0.95650  0.59010  0.22230  Biso   1.000  C
  H30      1.0000 0.93710  0.57840  0.19170  Biso   1.000  H
  C37      1.0000 0.91790  0.57540  0.26850  Biso   1.000  C
  C38      1.0000 0.94040  0.58920  0.31590  Biso   1.000  C
  H31      1.0000 0.98390  0.60890  0.31940  Biso   1.000  H
  C39      1.0000 0.90050  0.57460  0.35810  Biso   1.000  C
  H32      1.0000 0.91200  0.58660  0.39010  Biso   1.000  H
  C40      1.0000 0.84360  0.54230  0.35290  Biso   1.000  C
  H33      1.0000 0.81550  0.53110  0.38110  Biso   1.000  H
  C41      1.0000 0.82900  0.52680  0.30510  Biso   1.000  C
  H34      1.0000 0.79370  0.50270  0.30170  Biso   1.000  H
  N8       1.0000 0.86130  0.54360  0.26340  Biso   1.000  N
  C42      1.0000 0.50550  0.74910  0.39649  Biso   1.000  C
  H35      1.0000 0.54680  0.75130  0.37220  Biso   1.000  H
  C43      1.0000 0.45860  0.71105  0.39761  Biso   1.000  C
  C44      1.0000 0.39670  0.70892  0.43291  Biso   1.000  C
  C45      1.0000 0.38200  0.74367  0.46555  Biso   1.000  C
  C46      1.0000 0.43210  0.77996  0.46448  Biso   1.000  C
  C47      1.0000 0.49390  0.78405  0.42978  Biso   1.000  C
  C48      1.0000 0.54400  0.82557  0.42796  Biso   1.000  C
  H36      1.0000 0.54510  0.83700  0.46310  Biso   1.000  H
  C49      1.0000 0.51610  0.86587  0.34515  Biso   1.000  C
  H37      1.0000 0.55480  0.84780  0.32940  Biso   1.000  H
  C50      1.0000 0.50240  0.86080  0.39652  Biso   1.000  C
  C51      1.0000 0.44470  0.88752  0.41876  Biso   1.000  C
  C52      1.0000 0.40100  0.91785  0.39071  Biso   1.000  C
  C53      1.0000 0.41710  0.92215  0.33969  Biso   1.000  C
  C54      1.0000 0.47520  0.89649  0.31599  Biso   1.000  C
  C55      1.0000 0.48640  0.90062  0.25945  Biso   1.000  C
  H38      1.0000 0.46980  0.93100  0.25060  Biso   1.000  H
  C56      1.0000 0.44500  0.82667  0.22177  Biso   1.000  C
  H39      1.0000 0.49700  0.81600  0.22940  Biso   1.000  H
  C57      1.0000 0.42750  0.87028  0.23273  Biso   1.000  C
  C58      1.0000 0.35030  0.88515  0.22235  Biso   1.000  C
  C59      1.0000 0.29300  0.85744  0.20167  Biso   1.000  C
  C60      1.0000 0.31340  0.81448  0.19006  Biso   1.000  C
  C61      1.0000 0.39040  0.79820  0.20038  Biso   1.000  C
  C62      1.0000 0.40880  0.74988  0.19148  Biso   1.000  C
  H40      1.0000 0.37620  0.74050  0.16200  Biso   1.000  H
  C63      1.0000 0.43310  0.71141  0.27534  Biso   1.000  C
  H41      1.0000 0.48630  0.72220  0.27450  Biso   1.000  H
  C64      1.0000 0.38150  0.72222  0.23643  Biso   1.000  C
  C65      1.0000 0.30270  0.70780  0.23935  Biso   1.000  C
  C66      1.0000 0.27600  0.68367  0.28056  Biso   1.000  C
  C67      1.0000 0.33010  0.67150  0.31808  Biso   1.000  C
  C68      1.0000 0.40940  0.68520  0.31584  Biso   1.000  C
  C69      1.0000 0.46730  0.67496  0.35848  Biso   1.000  C
  H42      1.0000 0.44820  0.64740  0.37450  Biso   1.000  H
  C70      1.0000 0.63120  0.81752  0.41370  Biso   1.000  C
  H43      1.0000 0.65210  0.79310  0.43420  Biso   1.000  H
  H44      1.0000 0.63350  0.80840  0.37810  Biso   1.000  H
  C71      1.0000 0.68520  0.85710  0.42090  Biso   1.000  C
  H45      1.0000 0.67670  0.87720  0.39240  Biso   1.000  H
  H46      1.0000 0.66820  0.87250  0.45170  Biso   1.000  H
  C72      1.0000 0.76740  0.84840  0.42460  Biso   1.000  C
  H47      1.0000 0.79660  0.87580  0.42920  Biso   1.000  H
  H48      1.0000 0.77730  0.82930  0.45340  Biso   1.000  H
  H49      1.0000 0.78580  0.83400  0.39390  Biso   1.000  H
  C73      1.0000 0.57240  0.89604  0.24230  Biso   1.000  C
  H50      1.0000 0.58790  0.86490  0.24310  Biso   1.000  H
  H51      1.0000 0.60780  0.91210  0.26560  Biso   1.000  H
  C74      1.0000 0.58360  0.91390  0.18890  Biso   1.000  C
  H52      1.0000 0.54840  0.89750  0.16580  Biso   1.000  H
  H53      1.0000 0.56650  0.94480  0.18830  Biso   1.000  H
  C75      1.0000 0.66710  0.91110  0.17010  Biso   1.000  C
  H54      1.0000 0.70290  0.92630  0.19340  Biso   1.000  H
  H55      1.0000 0.67040  0.92480  0.13700  Biso   1.000  H
  H56      1.0000 0.68300  0.88050  0.16760  Biso   1.000  H
  C76      1.0000 0.49630  0.74140  0.17830  Biso   1.000  C
  H57      1.0000 0.51070  0.75950  0.14890  Biso   1.000  H
  H58      1.0000 0.53010  0.75090  0.20670  Biso   1.000  H
  C77      1.0000 0.51550  0.69396  0.16650  Biso   1.000  C
  H59      1.0000 0.49430  0.67510  0.19350  Biso   1.000  H
  H60      1.0000 0.48880  0.68560  0.13480  Biso   1.000  H
  C78      1.0000 0.60470  0.68670  0.16150  Biso   1.000  C
  H61      1.0000 0.62430  0.70140  0.13130  Biso   1.000  H
  H62      1.0000 0.61550  0.65530  0.15900  Biso   1.000  H
  H63      1.0000 0.63200  0.69850  0.19100  Biso   1.000  H
  C79      1.0000 0.55290  0.66701  0.34220  Biso   1.000  C
  H64      1.0000 0.58610  0.66210  0.37240  Biso   1.000  H
  H65      1.0000 0.57310  0.69360  0.32540  Biso   1.000  H
  C80      1.0000 0.56360  0.62830  0.30660  Biso   1.000  C
  H66      1.0000 0.53050  0.63290  0.27630  Biso   1.000  H
  H67      1.0000 0.54470  0.60140  0.32340  Biso   1.000  H
  C81      1.0000 0.65100  0.62250  0.29110  Biso   1.000  C
  H68      1.0000 0.67040  0.64950  0.27560  Biso   1.000  H
  H69      1.0000 0.65520  0.59850  0.26700  Biso   1.000  H
  H70      1.0000 0.68330  0.61580  0.32080  Biso   1.000  H
  C82      1.0000 0.97210  0.75196  0.43699  Biso   1.000  C
  H71      1.0000 0.92830  0.77160  0.43830  Biso   1.000  H
  C83      1.0000 0.02620  0.75151  0.47690  Biso   1.000  C
  C84      1.0000 0.09120  0.72332  0.47368  Biso   1.000  C
  C85      1.0000 0.10290  0.69699  0.43133  Biso   1.000  C
  C86      1.0000 0.04580  0.69730  0.39316  Biso   1.000  C
  C87      1.0000 0.97970  0.72463  0.39514  Biso   1.000  C
  C88      1.0000 0.92040  0.72749  0.35154  Biso   1.000  C
  H72      1.0000 0.92230  0.69870  0.33400  Biso   1.000  H
  C89      1.0000 0.92570  0.80492  0.31384  Biso   1.000  C
  H73      1.0000 0.88680  0.81400  0.33760  Biso   1.000  H
  C90      1.0000 0.94950  0.76147  0.31399  Biso   1.000  C
  C91      1.0000 0.00830  0.74924  0.27956  Biso   1.000  C
  C92      1.0000 0.04230  0.77953  0.24698  Biso   1.000  C
  C93      1.0000 0.01420  0.82218  0.24628  Biso   1.000  C
  C94      1.0000 0.95610  0.83596  0.28027  Biso   1.000  C
  C95      1.0000 0.93380  0.88440  0.28164  Biso   1.000  C
  H74      1.0000 0.93970  0.89550  0.24660  Biso   1.000  H
  C96      1.0000 0.98770  0.91271  0.36484  Biso   1.000  C
  H75      1.0000 0.94100  0.90130  0.38030  Biso   1.000  H
  C97      1.0000 0.99630  0.90821  0.31304  Biso   1.000  C
  C98      1.0000 0.06620  0.92441  0.29147  Biso   1.000  C
  C99      1.0000 0.12690  0.94326  0.32057  Biso   1.000  C
  C100     1.0000 0.11430  0.94840  0.37229  Biso   1.000  C
  C101     1.0000 0.04470  0.93329  0.39490  Biso   1.000  C
  C102     1.0000 0.03340  0.93766  0.45158  Biso   1.000  C
  H76      1.0000 0.06300  0.96440  0.46230  Biso   1.000  H
  C103     1.0000 0.02860  0.86115  0.49060  Biso   1.000  C
  H77      1.0000 0.97290  0.86080  0.48370  Biso   1.000  H
  C104     1.0000 0.07230  0.89892  0.47824  Biso   1.000  C
  C105     1.0000 0.15330  0.89878  0.48894  Biso   1.000  C
  C106     1.0000 0.19080  0.86252  0.50971  Biso   1.000  C
  C107     1.0000 0.14530  0.82575  0.52190  Biso   1.000  C
  C108     1.0000 0.06270  0.82433  0.51232  Biso   1.000  C
  C109     1.0000 0.01580  0.78249  0.52143  Biso   1.000  C
  H78      1.0000 0.04020  0.76790  0.55130  Biso   1.000  H
  C110     1.0000 0.83360  0.73413  0.36840  Biso   1.000  C
  H79      1.0000 0.83010  0.76090  0.38890  Biso   1.000  H
  H80      1.0000 0.79930  0.73820  0.33850  Biso   1.000  H
  C111     1.0000 0.72740  0.70200  0.42460  Biso   1.000  C
  H81      1.0000 0.71320  0.67530  0.44280  Biso   1.000  H
  H82      1.0000 0.73260  0.72620  0.44830  Biso   1.000  H
  H83      1.0000 0.68550  0.70870  0.40010  Biso   1.000  H
  C112     1.0000 0.84850  0.89409  0.29710  Biso   1.000  C
  H84      1.0000 0.84090  0.88490  0.33240  Biso   1.000  H
  H85      1.0000 0.81170  0.87670  0.27610  Biso   1.000  H
  C113     1.0000 0.82670  0.94270  0.29230  Biso   1.000  C
  H86      1.0000 0.86910  0.95980  0.30910  Biso   1.000  H
  H87      1.0000 0.82800  0.95040  0.25620  Biso   1.000  H
  C114     1.0000 0.75360  0.95600  0.31140  Biso   1.000  C
  H88      1.0000 0.74710  0.98740  0.30600  Biso   1.000  H
  H89      1.0000 0.71050  0.94020  0.29440  Biso   1.000  H
  H90      1.0000 0.75170  0.94980  0.34740  Biso   1.000  H
  C115     1.0000 0.94500  0.94411  0.46652  Biso   1.000  C
  H91      1.0000 0.91470  0.91760  0.45710  Biso   1.000  H
  H92      1.0000 0.94190  0.94720  0.50340  Biso   1.000  H
  C116     1.0000 0.90550  0.98324  0.44260  Biso   1.000  C
  H93      1.0000 0.92780  0.01030  0.45730  Biso   1.000  H
  H94      1.0000 0.91720  0.98340  0.40620  Biso   1.000  H
  C117     1.0000 0.81600  0.98250  0.45030  Biso   1.000  C
  H95      1.0000 0.79340  0.95660  0.43410  Biso   1.000  H
  H96      1.0000 0.79230  0.00880  0.43560  Biso   1.000  H
  H97      1.0000 0.80430  0.98160  0.48630  Biso   1.000  H
  C118     1.0000 0.92760  0.79112  0.53393  Biso   1.000  C
  H98      1.0000 0.92500  0.81200  0.56220  Biso   1.000  H
  H99      1.0000 0.90200  0.80510  0.50460  Biso   1.000  H
  C119     1.0000 0.87930  0.75045  0.54794  Biso   1.000  C
  H100     1.0000 0.88410  0.72870  0.52070  Biso   1.000  H
  H101     1.0000 0.90220  0.73740  0.57870  Biso   1.000  H
  C120     1.0000 0.79140  0.76030  0.55680  Biso   1.000  C
  H102     1.0000 0.78620  0.78270  0.58270  Biso   1.000  H
  H103     1.0000 0.76400  0.73370  0.56770  Biso   1.000  H
  H104     1.0000 0.76710  0.77070  0.52550  Biso   1.000  H
  C121     1.0000 0.46350  0.99030  0.50160  Biso   1.000  C
  H105     1.0000 0.43840  0.98130  0.47140  Biso   1.000  H
  C122     1.0000 0.14810  0.01544  0.18880  Biso   1.000  C
  H106     1.0000 0.12660  0.01740  0.22160  Biso   1.000  H
  C123     1.0000 0.13670  0.04976  0.15640  Biso   1.000  C
  H107     1.0000 0.10910  0.07520  0.16700  Biso   1.000  H
  C124     1.0000 0.16600  0.04670  0.10830  Biso   1.000  C
  H108     1.0000 0.15840  0.06980  0.08500  Biso   1.000  H
  C125     1.0000 0.20640  0.00950  0.09440  Biso   1.000  C
  H109     1.0000 0.22680  0.00650  0.06140  Biso   1.000  H
  C126     1.0000 0.21690  0.97650  0.12920  Biso   1.000  C
  H110     1.0000 0.24520  0.95090  0.11960  Biso   1.000  H
  H111     1.0000 0.73710  0.85020  0.40490  Biso   1.000  H
  H112     1.0000 0.66140  0.88140  0.40160  Biso   1.000  H
  C127     1.0000 0.70090  0.87210  0.46680  Biso   1.000  C
  H113     1.0000 0.73630  0.89740  0.46440  Biso   1.000  H
  H114     1.0000 0.65080  0.88060  0.48310  Biso   1.000  H
  H115     1.0000 0.72710  0.84920  0.48650  Biso   1.000  H
  C128     1.0000 0.80230  0.65900  0.38790  Biso   1.000  C
  H116     1.0000 0.77840  0.64180  0.41500  Biso   1.000  H
  H117     1.0000 0.77120  0.65490  0.35710  Biso   1.000  H
  H118     1.0000 0.85740  0.64920  0.38230  Biso   1.000  H
  C129     1.0000 0.83880  0.96510  0.24760  Biso   1.000  C
  H119     1.0000 0.82140  0.99540  0.25160  Biso   1.000  H
  H120     1.0000 0.89570  0.96440  0.23890  Biso   1.000  H
  H121     1.0000 0.80770  0.95130  0.22080  Biso   1.000  H
  C130     1.0000 0.80240  0.69560  0.39880  Biso   1.000  C
  H122     1.0000 0.79640  0.67030  0.37600  Biso   1.000  H
  H123     1.0000 0.84340  0.68770  0.42400  Biso   1.000  H
  H124     1.0000 0.83110  0.69700  0.43120  Biso   1.000  H
  H125     1.0000 0.74590  0.70270  0.40640  Biso   1.000  H
  H126     1.0000 0.76930  0.94540  0.30070  Biso   1.000  H
  H127     1.0000 0.85660  0.95840  0.31870  Biso   1.000  H
  O25      1.0000 0.94820  0.57670  0.24990  Biso   1.000  O
  C131     1.0000 0.94380  0.58580  0.29550  Biso   1.000  C
  N9       1.0000 0.88680  0.56670  0.32360  Biso   1.000  N
  C132     1.0000 0.88120  0.57740  0.37630  Biso   1.000  C
  H128     1.0000 0.83710  0.56100  0.39150  Biso   1.000  H
  H129     1.0000 0.93140  0.56970  0.39310  Biso   1.000  H
  H130     1.0000 0.87130  0.60870  0.38020  Biso   1.000  H
  C133     1.0000 0.82520  0.54100  0.30030  Biso   1.000  C
  H131     1.0000 0.78910  0.52970  0.32610  Biso   1.000  H
  H132     1.0000 0.79500  0.55920  0.27680  Biso   1.000  H
  H133     1.0000 0.84970  0.51660  0.28220  Biso   1.000  H
  Zn9      1.0000 0.25090  0.18718  0.01629  Biso   1.000  Zn
  Zn10     1.0000 0.19293  0.30037  0.96733  Biso   1.000  Zn
  Zn11     1.0000 0.17898  0.41662  0.01662  Biso   1.000  Zn
  Zn12     1.0000 0.22312  0.47151  0.14413  Biso   1.000  Zn
  Zn13     1.0000 0.29814  0.43131  0.27237  Biso   1.000  Zn
  Zn14     1.0000 0.35567  0.32016  0.32223  Biso   1.000  Zn
  Zn15     1.0000 0.36599  0.20443  0.26973  Biso   1.000  Zn
  Zn16     1.0000 0.32239  0.14708  0.14452  Biso   1.000  Zn
  O26      1.0000 0.15410  0.17371  0.06272  Biso   1.000  O
  O27      1.0000 0.18150  0.24184  0.00287  Biso   1.000  O
  O28      1.0000 0.08470  0.31175  0.00053  Biso   1.000  O
  O29      1.0000 0.07350  0.38514  0.03086  Biso   1.000  O
  O30      1.0000 0.15860  0.44114  0.08766  Biso   1.000  O
  O31      1.0000 0.12880  0.45205  0.18571  Biso   1.000  O
  O32      1.0000 0.17510  0.42679  0.26659  Biso   1.000  O
  O33      1.0000 0.28340  0.37155  0.30467  Biso   1.000  O
  O34      1.0000 0.24650  0.28938  0.33039  Biso   1.000  O
  O35      1.0000 0.25360  0.21630  0.29717  Biso   1.000  O
  O36      1.0000 0.30310  0.17307  0.21484  Biso   1.000  O
  O37      1.0000 0.20090  0.14770  0.14293  Biso   1.000  O
  O38      1.0000 0.34990  0.22042  0.99031  Biso   1.000  O
  O39      1.0000 0.32910  0.17306  0.07395  Biso   1.000  O
  O40      1.0000 0.43920  0.16986  0.14680  Biso   1.000  O
  O41      1.0000 0.46370  0.20703  0.22482  Biso   1.000  O
  O42      1.0000 0.39750  0.26743  0.28431  Biso   1.000  O
  O43      1.0000 0.45260  0.34926  0.28925  Biso   1.000  O
  O44      1.0000 0.41770  0.42084  0.25916  Biso   1.000  O
  O45      1.0000 0.30230  0.45451  0.20037  Biso   1.000  O
  O46      1.0000 0.32450  0.46744  0.10169  Biso   1.000  O
  O47      1.0000 0.29690  0.43352  0.02220  Biso   1.000  O
  O48      1.0000 0.22830  0.36226  0.98459  Biso   1.000  O
  O49      1.0000 0.31300  0.29101  0.95820  Biso   1.000  O
  N10      1.0000 0.16150  0.30307  0.89357  Biso   1.000  N
  C134     1.0000 0.20110  0.33308  0.86616  Biso   1.000  C
  H134     1.0000 0.24070  0.35010  0.88260  Biso   1.000  H
  C135     1.0000 0.18800  0.34070  0.81609  Biso   1.000  C
  H135     1.0000 0.21710  0.36230  0.79830  Biso   1.000  H
  C136     1.0000 0.13220  0.31610  0.79360  Biso   1.000  C
  H136     1.0000 0.12170  0.32060  0.75900  Biso   1.000  H
  C137     1.0000 0.09020  0.28520  0.81869  Biso   1.000  C
  H137     1.0000 0.05170  0.26780  0.80190  Biso   1.000  H
  C138     1.0000 0.10540  0.27952  0.87064  Biso   1.000  C
  C139     1.0000 0.06160  0.24797  0.90120  Biso   1.000  C
  H138     1.0000 0.07570  0.24620  0.93560  Biso   1.000  H
  C140     1.0000 0.00410  0.22155  0.88550  Biso   1.000  C
  H139     1.0000 0.99250  0.22180  0.85060  Biso   1.000  H
  C141     1.0000 0.95680  0.19204  0.91670  Biso   1.000  C
  C142     1.0000 0.97830  0.18170  0.96540  Biso   1.000  C
  H140     1.0000 0.02520  0.19390  0.97980  Biso   1.000  H
  C143     1.0000 0.93150  0.15390  0.99260  Biso   1.000  C
  H141     1.0000 0.94710  0.14590  0.02560  Biso   1.000  H
  C144     1.0000 0.86240  0.13740  0.97280  Biso   1.000  C
  H142     1.0000 0.82870  0.11890  0.99200  Biso   1.000  H
  C145     1.0000 0.84290  0.14870  0.92380  Biso   1.000  C
  H143     1.0000 0.79480  0.13780  0.90960  Biso   1.000  H
  N11      1.0000 0.89010  0.17457  0.89589  Biso   1.000  N
  N12      1.0000 0.13840  0.45467  0.95620  Biso   1.000  N
  C146     1.0000 0.17300  0.44390  0.91200  Biso   1.000  C
  H144     1.0000 0.21180  0.42130  0.91310  Biso   1.000  H
  C147     1.0000 0.15860  0.46190  0.86580  Biso   1.000  C
  H145     1.0000 0.18680  0.45330  0.83650  Biso   1.000  H
  C148     1.0000 0.10170  0.49230  0.86530  Biso   1.000  C
  H146     1.0000 0.08650  0.50430  0.83390  Biso   1.000  H
  C149     1.0000 0.06450  0.50690  0.90700  Biso   1.000  C
  H147     1.0000 0.03110  0.53200  0.90630  Biso   1.000  H
  C150     1.0000 0.07790  0.48270  0.95220  Biso   1.000  C
  N13      1.0000 0.22320  0.53931  0.14341  Biso   1.000  N
  C151     1.0000 0.24910  0.55665  0.09995  Biso   1.000  C
  H148     1.0000 0.24910  0.53880  0.07090  Biso   1.000  H
  C152     1.0000 0.27550  0.59876  0.09566  Biso   1.000  C
  H149     1.0000 0.29180  0.61000  0.06410  Biso   1.000  H
  C153     1.0000 0.27770  0.62423  0.13760  Biso   1.000  C
  H150     1.0000 0.29710  0.65330  0.13580  Biso   1.000  H
  C154     1.0000 0.25180  0.60745  0.18229  Biso   1.000  C
  H151     1.0000 0.25430  0.62480  0.21180  Biso   1.000  H
  C155     1.0000 0.22150  0.56484  0.18487  Biso   1.000  C
  C156     1.0000 0.18630  0.54710  0.23034  Biso   1.000  C
  H152     1.0000 0.16460  0.51850  0.22880  Biso   1.000  H
  C157     1.0000 0.18230  0.56801  0.27396  Biso   1.000  C
  H153     1.0000 0.20730  0.59580  0.27520  Biso   1.000  H
  C158     1.0000 0.14390  0.55324  0.32021  Biso   1.000  C
  C159     1.0000 0.10810  0.51289  0.32610  Biso   1.000  C
  H154     1.0000 0.10700  0.49290  0.29890  Biso   1.000  H
  C160     1.0000 0.07370  0.50147  0.37140  Biso   1.000  C
  H155     1.0000 0.04910  0.47380  0.37550  Biso   1.000  H
  C161     1.0000 0.07570  0.53070  0.41080  Biso   1.000  C
  H156     1.0000 0.05330  0.52350  0.44240  Biso   1.000  H
  C162     1.0000 0.11110  0.57082  0.40270  Biso   1.000  C
  H157     1.0000 0.11230  0.59110  0.42960  Biso   1.000  H
  N14      1.0000 0.14390  0.58242  0.35882  Biso   1.000  N
  N15      1.0000 0.31170  0.47946  0.32405  Biso   1.000  N
  N16      1.0000 0.40660  0.17005  0.33069  Biso   1.000  N
  C163     1.0000 0.38990  0.18679  0.37627  Biso   1.000  C
  H158     1.0000 0.35790  0.21230  0.37810  Biso   1.000  H
  C164     1.0000 0.41680  0.16865  0.42004  Biso   1.000  C
  H159     1.0000 0.40500  0.18190  0.45140  Biso   1.000  H
  C165     1.0000 0.46080  0.13130  0.41800  Biso   1.000  C
  H160     1.0000 0.47920  0.11790  0.44800  Biso   1.000  H
  C166     1.0000 0.47800  0.11333  0.37250  Biso   1.000  C
  H161     1.0000 0.50830  0.08720  0.37070  Biso   1.000  H
  C167     1.0000 0.45120  0.13349  0.32835  Biso   1.000  C
  C168     1.0000 0.48330  0.11870  0.28070  Biso   1.000  C
  H162     1.0000 0.46070  0.12980  0.25050  Biso   1.000  H
  C169     1.0000 0.54350  0.09010  0.27770  Biso   1.000  C
  H163     1.0000 0.56290  0.07840  0.30830  Biso   1.000  H
  C170     1.0000 0.58210  0.07540  0.23150  Biso   1.000  C
  C171     1.0000 0.55960  0.08920  0.18410  Biso   1.000  C
  H164     1.0000 0.51610  0.10890  0.18060  Biso   1.000  H
  C172     1.0000 0.59950  0.07460  0.14190  Biso   1.000  C
  H165     1.0000 0.58800  0.08660  0.10990  Biso   1.000  H
  C173     1.0000 0.65640  0.04230  0.14710  Biso   1.000  C
  H166     1.0000 0.68450  0.03110  0.11890  Biso   1.000  H
  C174     1.0000 0.67100  0.02680  0.19490  Biso   1.000  C
  H167     1.0000 0.70630  0.00270  0.19830  Biso   1.000  H
  N17      1.0000 0.63870  0.04360  0.23660  Biso   1.000  N
  C175     1.0000 0.99450  0.24910  0.10351  Biso   1.000  C
  H168     1.0000 0.95320  0.25130  0.12780  Biso   1.000  H
  C176     1.0000 0.04140  0.21105  0.10239  Biso   1.000  C
  C177     1.0000 0.10330  0.20892  0.06709  Biso   1.000  C
  C178     1.0000 0.11800  0.24367  0.03445  Biso   1.000  C
  C179     1.0000 0.06790  0.27996  0.03552  Biso   1.000  C
  C180     1.0000 0.00610  0.28405  0.07022  Biso   1.000  C
  C181     1.0000 0.95600  0.32557  0.07204  Biso   1.000  C
  H169     1.0000 0.95490  0.33700  0.03690  Biso   1.000  H
  C182     1.0000 0.98390  0.36587  0.15485  Biso   1.000  C
  H170     1.0000 0.94520  0.34780  0.17060  Biso   1.000  H
  C183     1.0000 0.99760  0.36080  0.10348  Biso   1.000  C
  C184     1.0000 0.05530  0.38752  0.08124  Biso   1.000  C
  C185     1.0000 0.09900  0.41785  0.10929  Biso   1.000  C
  C186     1.0000 0.08290  0.42215  0.16031  Biso   1.000  C
  C187     1.0000 0.02480  0.39649  0.18401  Biso   1.000  C
  C188     1.0000 0.01360  0.40062  0.24055  Biso   1.000  C
  H171     1.0000 0.03020  0.43100  0.24940  Biso   1.000  H
  C189     1.0000 0.05500  0.32667  0.27823  Biso   1.000  C
  H172     1.0000 0.00300  0.31600  0.27060  Biso   1.000  H
  C190     1.0000 0.07250  0.37028  0.26727  Biso   1.000  C
  C191     1.0000 0.14970  0.38515  0.27765  Biso   1.000  C
  C192     1.0000 0.20700  0.35744  0.29833  Biso   1.000  C
  C193     1.0000 0.18660  0.31448  0.30994  Biso   1.000  C
  C194     1.0000 0.10960  0.29820  0.29962  Biso   1.000  C
  C195     1.0000 0.09120  0.24988  0.30852  Biso   1.000  C
  H173     1.0000 0.12380  0.24050  0.33800  Biso   1.000  H
  C196     1.0000 0.06690  0.21141  0.22466  Biso   1.000  C
  H174     1.0000 0.01370  0.22220  0.22550  Biso   1.000  H
  C197     1.0000 0.11850  0.22222  0.26357  Biso   1.000  C
  C198     1.0000 0.19730  0.20780  0.26065  Biso   1.000  C
  C199     1.0000 0.22400  0.18367  0.21944  Biso   1.000  C
  C200     1.0000 0.16990  0.17150  0.18192  Biso   1.000  C
  C201     1.0000 0.09060  0.18520  0.18416  Biso   1.000  C
  C202     1.0000 0.03270  0.17496  0.14152  Biso   1.000  C
  H175     1.0000 0.05180  0.14740  0.12550  Biso   1.000  H
  C203     1.0000 0.86880  0.31752  0.08630  Biso   1.000  C
  H176     1.0000 0.84790  0.29310  0.06580  Biso   1.000  H
  H177     1.0000 0.86650  0.30840  0.12190  Biso   1.000  H
  C204     1.0000 0.81480  0.35710  0.07910  Biso   1.000  C
  H178     1.0000 0.82330  0.37720  0.10760  Biso   1.000  H
  H179     1.0000 0.83180  0.37250  0.04830  Biso   1.000  H
  C205     1.0000 0.73260  0.34840  0.07540  Biso   1.000  C
  H180     1.0000 0.70340  0.37580  0.07080  Biso   1.000  H
  H181     1.0000 0.72270  0.32930  0.04660  Biso   1.000  H
  H182     1.0000 0.71420  0.33400  0.10610  Biso   1.000  H
  C206     1.0000 0.92760  0.39604  0.25770  Biso   1.000  C
  H183     1.0000 0.91210  0.36490  0.25690  Biso   1.000  H
  H184     1.0000 0.89220  0.41210  0.23440  Biso   1.000  H
  C207     1.0000 0.91640  0.41390  0.31110  Biso   1.000  C
  H185     1.0000 0.95160  0.39750  0.33420  Biso   1.000  H
  H186     1.0000 0.93350  0.44480  0.31170  Biso   1.000  H
  C208     1.0000 0.83290  0.41110  0.32990  Biso   1.000  C
  H187     1.0000 0.79710  0.42630  0.30660  Biso   1.000  H
  H188     1.0000 0.82960  0.42480  0.36300  Biso   1.000  H
  H189     1.0000 0.81700  0.38050  0.33240  Biso   1.000  H
  C209     1.0000 0.00370  0.24140  0.32170  Biso   1.000  C
  H190     1.0000 0.98930  0.25950  0.35110  Biso   1.000  H
  H191     1.0000 0.96990  0.25090  0.29330  Biso   1.000  H
  C210     1.0000 0.98450  0.19396  0.33350  Biso   1.000  C
  H192     1.0000 0.00570  0.17510  0.30650  Biso   1.000  H
  H193     1.0000 0.01120  0.18560  0.36520  Biso   1.000  H
  C211     1.0000 0.89530  0.18670  0.33850  Biso   1.000  C
  H194     1.0000 0.87570  0.20140  0.36870  Biso   1.000  H
  H195     1.0000 0.88450  0.15530  0.34100  Biso   1.000  H
  H196     1.0000 0.86800  0.19850  0.30900  Biso   1.000  H
  C212     1.0000 0.94710  0.16701  0.15780  Biso   1.000  C
  H197     1.0000 0.91390  0.16210  0.12760  Biso   1.000  H
  H198     1.0000 0.92690  0.19360  0.17460  Biso   1.000  H
  C213     1.0000 0.93640  0.12830  0.19340  Biso   1.000  C
  H199     1.0000 0.96950  0.13290  0.22370  Biso   1.000  H
  H200     1.0000 0.95530  0.10140  0.17660  Biso   1.000  H
  C214     1.0000 0.84900  0.12250  0.20890  Biso   1.000  C
  H201     1.0000 0.82960  0.14950  0.22440  Biso   1.000  H
  H202     1.0000 0.84480  0.09850  0.23300  Biso   1.000  H
  H203     1.0000 0.81670  0.11580  0.17920  Biso   1.000  H
  C215     1.0000 0.52790  0.25196  0.06301  Biso   1.000  C
  H204     1.0000 0.57170  0.27160  0.06170  Biso   1.000  H
  C216     1.0000 0.47380  0.25151  0.02310  Biso   1.000  C
  C217     1.0000 0.40880  0.22332  0.02632  Biso   1.000  C
  C218     1.0000 0.39710  0.19699  0.06867  Biso   1.000  C
  C219     1.0000 0.45420  0.19730  0.10684  Biso   1.000  C
  C220     1.0000 0.52030  0.22463  0.10486  Biso   1.000  C
  C221     1.0000 0.57960  0.22749  0.14846  Biso   1.000  C
  H205     1.0000 0.57770  0.19870  0.16600  Biso   1.000  H
  C222     1.0000 0.57430  0.30492  0.18616  Biso   1.000  C
  H206     1.0000 0.61320  0.31400  0.16240  Biso   1.000  H
  C223     1.0000 0.55050  0.26147  0.18601  Biso   1.000  C
  C224     1.0000 0.49170  0.24924  0.22044  Biso   1.000  C
  C225     1.0000 0.45770  0.27953  0.25302  Biso   1.000  C
  C226     1.0000 0.48580  0.32218  0.25372  Biso   1.000  C
  C227     1.0000 0.54390  0.33596  0.21973  Biso   1.000  C
  C228     1.0000 0.56620  0.38440  0.21836  Biso   1.000  C
  H207     1.0000 0.56030  0.39550  0.25340  Biso   1.000  H
  C229     1.0000 0.51230  0.41271  0.13516  Biso   1.000  C
  H208     1.0000 0.55900  0.40130  0.11970  Biso   1.000  H
  C230     1.0000 0.50370  0.40821  0.18696  Biso   1.000  C
  C231     1.0000 0.43380  0.42441  0.20853  Biso   1.000  C
  C232     1.0000 0.37310  0.44326  0.17943  Biso   1.000  C
  C233     1.0000 0.38570  0.44840  0.12771  Biso   1.000  C
  C234     1.0000 0.45530  0.43329  0.10510  Biso   1.000  C
  C235     1.0000 0.46660  0.43766  0.04842  Biso   1.000  C
  H209     1.0000 0.43700  0.46440  0.03770  Biso   1.000  H
  C236     1.0000 0.47140  0.36115  0.00940  Biso   1.000  C
  H210     1.0000 0.52710  0.36080  0.01630  Biso   1.000  H
  C237     1.0000 0.42770  0.39892  0.02176  Biso   1.000  C
  C238     1.0000 0.34670  0.39878  0.01106  Biso   1.000  C
  C239     1.0000 0.30920  0.36252  0.99029  Biso   1.000  C
  C240     1.0000 0.35470  0.32575  0.97810  Biso   1.000  C
  C241     1.0000 0.43730  0.32433  0.98768  Biso   1.000  C
  C242     1.0000 0.48420  0.28249  0.97857  Biso   1.000  C
  H211     1.0000 0.45980  0.26790  0.94870  Biso   1.000  H
  C243     1.0000 0.66640  0.23413  0.13160  Biso   1.000  C
  H212     1.0000 0.66990  0.26090  0.11110  Biso   1.000  H
  H213     1.0000 0.70070  0.23820  0.16150  Biso   1.000  H
  C244     1.0000 0.77260  0.20200  0.07540  Biso   1.000  C
  H214     1.0000 0.78680  0.17530  0.05720  Biso   1.000  H
  H215     1.0000 0.76740  0.22620  0.05170  Biso   1.000  H
  H216     1.0000 0.81450  0.20870  0.09990  Biso   1.000  H
  C245     1.0000 0.65150  0.39409  0.20290  Biso   1.000  C
  H217     1.0000 0.65910  0.38490  0.16760  Biso   1.000  H
  H218     1.0000 0.68830  0.37670  0.22390  Biso   1.000  H
  C246     1.0000 0.67330  0.44270  0.20770  Biso   1.000  C
  H219     1.0000 0.63090  0.45980  0.19090  Biso   1.000  H
  H220     1.0000 0.67200  0.45040  0.24380  Biso   1.000  H
  C247     1.0000 0.74640  0.45600  0.18860  Biso   1.000  C
  H221     1.0000 0.75290  0.48740  0.19400  Biso   1.000  H
  H222     1.0000 0.78950  0.44020  0.20560  Biso   1.000  H
  H223     1.0000 0.74830  0.44980  0.15260  Biso   1.000  H
  C248     1.0000 0.55500  0.44411  0.03348  Biso   1.000  C
  H224     1.0000 0.58530  0.41760  0.04290  Biso   1.000  H
  H225     1.0000 0.55810  0.44720  0.99660  Biso   1.000  H
  C249     1.0000 0.59450  0.48324  0.05740  Biso   1.000  C
  H226     1.0000 0.57220  0.51030  0.04270  Biso   1.000  H
  H227     1.0000 0.58280  0.48340  0.09380  Biso   1.000  H
  C250     1.0000 0.68400  0.48250  0.04970  Biso   1.000  C
  H228     1.0000 0.70660  0.45660  0.06590  Biso   1.000  H
  H229     1.0000 0.70770  0.50880  0.06440  Biso   1.000  H
  H230     1.0000 0.69570  0.48160  0.01370  Biso   1.000  H
  C251     1.0000 0.57240  0.29112  0.96607  Biso   1.000  C
  H231     1.0000 0.57500  0.31200  0.93780  Biso   1.000  H
  H232     1.0000 0.59800  0.30510  0.99540  Biso   1.000  H
  C252     1.0000 0.62070  0.25045  0.95206  Biso   1.000  C
  H233     1.0000 0.61590  0.22870  0.97930  Biso   1.000  H
  H234     1.0000 0.59780  0.23740  0.92130  Biso   1.000  H
  C253     1.0000 0.70860  0.26030  0.94320  Biso   1.000  C
  H235     1.0000 0.71380  0.28270  0.91730  Biso   1.000  H
  H236     1.0000 0.73600  0.23370  0.93230  Biso   1.000  H
  H237     1.0000 0.73290  0.27070  0.97450  Biso   1.000  H
  C254     1.0000 0.03650  0.49030  0.99840  Biso   1.000  C
  H238     1.0000 0.06160  0.48130  0.02860  Biso   1.000  H
  C255     1.0000 0.35190  0.51544  0.31120  Biso   1.000  C
  H239     1.0000 0.37340  0.51740  0.27840  Biso   1.000  H
  C256     1.0000 0.36330  0.54976  0.34360  Biso   1.000  C
  H240     1.0000 0.39090  0.57520  0.33300  Biso   1.000  H
  C257     1.0000 0.33400  0.54670  0.39170  Biso   1.000  C
  H241     1.0000 0.34160  0.56980  0.41500  Biso   1.000  H
  C258     1.0000 0.29360  0.50950  0.40560  Biso   1.000  C
  H242     1.0000 0.27320  0.50650  0.43860  Biso   1.000  H
  C259     1.0000 0.28310  0.47650  0.37080  Biso   1.000  C
  H243     1.0000 0.25480  0.45090  0.38040  Biso   1.000  H
  H244     1.0000 0.76290  0.35020  0.09510  Biso   1.000  H
  H245     1.0000 0.83860  0.38140  0.09840  Biso   1.000  H
  C260     1.0000 0.79910  0.37210  0.03320  Biso   1.000  C
  H246     1.0000 0.76370  0.39740  0.03560  Biso   1.000  H
  H247     1.0000 0.84920  0.38060  0.01690  Biso   1.000  H
  H248     1.0000 0.77290  0.34920  0.01350  Biso   1.000  H
  C261     1.0000 0.69770  0.15900  0.11210  Biso   1.000  C
  H249     1.0000 0.72160  0.14180  0.08500  Biso   1.000  H
  H250     1.0000 0.72880  0.15490  0.14290  Biso   1.000  H
  H251     1.0000 0.64260  0.14920  0.11770  Biso   1.000  H
  C262     1.0000 0.66120  0.46510  0.25240  Biso   1.000  C
  H252     1.0000 0.67860  0.49540  0.24840  Biso   1.000  H
  H253     1.0000 0.60430  0.46440  0.26110  Biso   1.000  H
  H254     1.0000 0.69230  0.45130  0.27920  Biso   1.000  H
  C263     1.0000 0.69760  0.19560  0.10120  Biso   1.000  C
  H255     1.0000 0.70360  0.17030  0.12400  Biso   1.000  H
  H256     1.0000 0.65660  0.18770  0.07600  Biso   1.000  H
  H257     1.0000 0.66890  0.19700  0.06880  Biso   1.000  H
  H258     1.0000 0.75410  0.20270  0.09360  Biso   1.000  H
  H259     1.0000 0.73070  0.44540  0.19930  Biso   1.000  H
  H260     1.0000 0.64340  0.45840  0.18130  Biso   1.000  H
  O50      1.0000 0.55180  0.07670  0.25010  Biso   1.000  O
  C264     1.0000 0.55620  0.08580  0.20450  Biso   1.000  C
  N18      1.0000 0.61320  0.06670  0.17640  Biso   1.000  N
  C265     1.0000 0.61880  0.07740  0.12370  Biso   1.000  C
  H261     1.0000 0.66290  0.06100  0.10850  Biso   1.000  H
  H262     1.0000 0.56860  0.06970  0.10690  Biso   1.000  H
  H263     1.0000 0.62870  0.10870  0.11980  Biso   1.000  H
  C266     1.0000 0.67480  0.04100  0.19970  Biso   1.000  C
  H264     1.0000 0.71090  0.02970  0.17390  Biso   1.000  H
  H265     1.0000 0.70500  0.05920  0.22320  Biso   1.000  H
  H266     1.0000 0.65030  0.01660  0.21780  Biso   1.000  H
  Zn17     1.0000 0.75090  0.31282  0.51629  Biso   1.000  Zn
  Zn18     1.0000 0.69293  0.19963  0.46733  Biso   1.000  Zn
  Zn19     1.0000 0.67898  0.08338  0.51662  Biso   1.000  Zn
  Zn20     1.0000 0.72312  0.02849  0.64413  Biso   1.000  Zn
  Zn21     1.0000 0.79814  0.06869  0.77237  Biso   1.000  Zn
  Zn22     1.0000 0.85567  0.17984  0.82223  Biso   1.000  Zn
  Zn23     1.0000 0.86599  0.29557  0.76973  Biso   1.000  Zn
  Zn24     1.0000 0.82239  0.35292  0.64452  Biso   1.000  Zn
  O51      1.0000 0.65410  0.32629  0.56272  Biso   1.000  O
  O52      1.0000 0.68150  0.25816  0.50287  Biso   1.000  O
  O53      1.0000 0.58470  0.18825  0.50053  Biso   1.000  O
  O54      1.0000 0.57350  0.11486  0.53086  Biso   1.000  O
  O55      1.0000 0.65860  0.05886  0.58766  Biso   1.000  O
  O56      1.0000 0.62880  0.04795  0.68571  Biso   1.000  O
  O57      1.0000 0.67510  0.07321  0.76659  Biso   1.000  O
  O58      1.0000 0.78340  0.12845  0.80467  Biso   1.000  O
  O59      1.0000 0.74650  0.21062  0.83039  Biso   1.000  O
  O60      1.0000 0.75360  0.28370  0.79717  Biso   1.000  O
  O61      1.0000 0.80310  0.32693  0.71484  Biso   1.000  O
  O62      1.0000 0.70090  0.35230  0.64293  Biso   1.000  O
  O63      1.0000 0.84990  0.27958  0.49031  Biso   1.000  O
  O64      1.0000 0.82910  0.32694  0.57395  Biso   1.000  O
  O65      1.0000 0.93920  0.33014  0.64680  Biso   1.000  O
  O66      1.0000 0.96370  0.29297  0.72482  Biso   1.000  O
  O67      1.0000 0.89750  0.23257  0.78431  Biso   1.000  O
  O68      1.0000 0.95260  0.15074  0.78925  Biso   1.000  O
  O69      1.0000 0.91770  0.07916  0.75916  Biso   1.000  O
  O70      1.0000 0.80230  0.04549  0.70037  Biso   1.000  O
  O71      1.0000 0.82450  0.03256  0.60169  Biso   1.000  O
  O72      1.0000 0.79690  0.06648  0.52220  Biso   1.000  O
  O73      1.0000 0.72830  0.13774  0.48459  Biso   1.000  O
  O74      1.0000 0.81300  0.20899  0.45820  Biso   1.000  O
  N19      1.0000 0.66150  0.19693  0.39357  Biso   1.000  N
  C267     1.0000 0.70110  0.16692  0.36616  Biso   1.000  C
  H267     1.0000 0.74070  0.14990  0.38260  Biso   1.000  H
  C268     1.0000 0.68800  0.15930  0.31609  Biso   1.000  C
  H268     1.0000 0.71710  0.13770  0.29830  Biso   1.000  H
  C269     1.0000 0.63220  0.18390  0.29360  Biso   1.000  C
  H269     1.0000 0.62170  0.17940  0.25900  Biso   1.000  H
  C270     1.0000 0.59020  0.21480  0.31869  Biso   1.000  C
  H270     1.0000 0.55170  0.23220  0.30190  Biso   1.000  H
  C271     1.0000 0.60540  0.22048  0.37064  Biso   1.000  C
  C272     1.0000 0.56160  0.25203  0.40120  Biso   1.000  C
  H271     1.0000 0.57570  0.25380  0.43560  Biso   1.000  H
  C273     1.0000 0.50410  0.27845  0.38550  Biso   1.000  C
  H272     1.0000 0.49250  0.27820  0.35060  Biso   1.000  H
  C274     1.0000 0.45680  0.30796  0.41670  Biso   1.000  C
  C275     1.0000 0.47830  0.31830  0.46540  Biso   1.000  C
  H273     1.0000 0.52520  0.30610  0.47980  Biso   1.000  H
  C276     1.0000 0.43150  0.34610  0.49260  Biso   1.000  C
  H274     1.0000 0.44710  0.35410  0.52560  Biso   1.000  H
  C277     1.0000 0.36240  0.36260  0.47280  Biso   1.000  C
  H275     1.0000 0.32870  0.38110  0.49200  Biso   1.000  H
  C278     1.0000 0.34290  0.35130  0.42380  Biso   1.000  C
  H276     1.0000 0.29480  0.36220  0.40960  Biso   1.000  H
  N20      1.0000 0.39010  0.32543  0.39589  Biso   1.000  N
  N21      1.0000 0.63840  0.04533  0.45620  Biso   1.000  N
  C279     1.0000 0.67300  0.05610  0.41200  Biso   1.000  C
  H277     1.0000 0.71180  0.07870  0.41310  Biso   1.000  H
  C280     1.0000 0.65860  0.03810  0.36580  Biso   1.000  C
  H278     1.0000 0.68680  0.04670  0.33650  Biso   1.000  H
  C281     1.0000 0.60170  0.00770  0.36530  Biso   1.000  C
  H279     1.0000 0.58650  0.99570  0.33390  Biso   1.000  H
  C282     1.0000 0.56450  0.99310  0.40700  Biso   1.000  C
  H280     1.0000 0.53110  0.96800  0.40630  Biso   1.000  H
  C283     1.0000 0.57790  0.01730  0.45220  Biso   1.000  C
  N22      1.0000 0.72320  0.96069  0.64341  Biso   1.000  N
  C284     1.0000 0.74910  0.94335  0.59995  Biso   1.000  C
  H281     1.0000 0.74910  0.96120  0.57090  Biso   1.000  H
  C285     1.0000 0.77550  0.90124  0.59566  Biso   1.000  C
  H282     1.0000 0.79180  0.89000  0.56410  Biso   1.000  H
  C286     1.0000 0.77770  0.87577  0.63760  Biso   1.000  C
  H283     1.0000 0.79710  0.84670  0.63580  Biso   1.000  H
  C287     1.0000 0.75180  0.89255  0.68229  Biso   1.000  C
  H284     1.0000 0.75430  0.87520  0.71180  Biso   1.000  H
  C288     1.0000 0.72150  0.93516  0.68487  Biso   1.000  C
  C289     1.0000 0.68630  0.95290  0.73034  Biso   1.000  C
  H285     1.0000 0.66460  0.98150  0.72880  Biso   1.000  H
  C290     1.0000 0.68230  0.93199  0.77396  Biso   1.000  C
  H286     1.0000 0.70730  0.90420  0.77520  Biso   1.000  H
  C291     1.0000 0.64390  0.94676  0.82021  Biso   1.000  C
  C292     1.0000 0.60810  0.98711  0.82610  Biso   1.000  C
  H287     1.0000 0.60700  0.00710  0.79890  Biso   1.000  H
  C293     1.0000 0.57370  0.99853  0.87140  Biso   1.000  C
  H288     1.0000 0.54910  0.02620  0.87550  Biso   1.000  H
  C294     1.0000 0.57570  0.96930  0.91080  Biso   1.000  C
  H289     1.0000 0.55330  0.97650  0.94240  Biso   1.000  H
  C295     1.0000 0.61110  0.92918  0.90270  Biso   1.000  C
  H290     1.0000 0.61230  0.90890  0.92960  Biso   1.000  H
  N23      1.0000 0.64390  0.91758  0.85882  Biso   1.000  N
  N24      1.0000 0.81170  0.02054  0.82405  Biso   1.000  N
  N25      1.0000 0.90660  0.32995  0.83069  Biso   1.000  N
  C296     1.0000 0.88990  0.31321  0.87627  Biso   1.000  C
  H291     1.0000 0.85790  0.28770  0.87810  Biso   1.000  H
  C297     1.0000 0.91680  0.33135  0.92004  Biso   1.000  C
  H292     1.0000 0.90500  0.31810  0.95140  Biso   1.000  H
  C298     1.0000 0.96080  0.36870  0.91800  Biso   1.000  C
  H293     1.0000 0.97920  0.38210  0.94800  Biso   1.000  H
  C299     1.0000 0.97800  0.38667  0.87250  Biso   1.000  C
  H294     1.0000 0.00830  0.41280  0.87070  Biso   1.000  H
  C300     1.0000 0.95120  0.36651  0.82835  Biso   1.000  C
  C301     1.0000 0.98330  0.38130  0.78070  Biso   1.000  C
  H295     1.0000 0.96070  0.37020  0.75050  Biso   1.000  H
  C302     1.0000 0.04350  0.40990  0.77770  Biso   1.000  C
  H296     1.0000 0.06290  0.42160  0.80830  Biso   1.000  H
  C303     1.0000 0.08210  0.42460  0.73150  Biso   1.000  C
  C304     1.0000 0.05960  0.41080  0.68410  Biso   1.000  C
  H297     1.0000 0.01610  0.39110  0.68060  Biso   1.000  H
  C305     1.0000 0.09950  0.42540  0.64190  Biso   1.000  C
  H298     1.0000 0.08800  0.41340  0.60990  Biso   1.000  H
  C306     1.0000 0.15640  0.45770  0.64710  Biso   1.000  C
  H299     1.0000 0.18450  0.46890  0.61890  Biso   1.000  H
  C307     1.0000 0.17100  0.47320  0.69490  Biso   1.000  C
  H300     1.0000 0.20630  0.49730  0.69830  Biso   1.000  H
  N26      1.0000 0.13870  0.45640  0.73660  Biso   1.000  N
  C308     1.0000 0.49450  0.25090  0.60351  Biso   1.000  C
  H301     1.0000 0.45320  0.24870  0.62780  Biso   1.000  H
  C309     1.0000 0.54140  0.28895  0.60239  Biso   1.000  C
  C310     1.0000 0.60330  0.29108  0.56709  Biso   1.000  C
  C311     1.0000 0.61800  0.25633  0.53445  Biso   1.000  C
  C312     1.0000 0.56790  0.22004  0.53552  Biso   1.000  C
  C313     1.0000 0.50610  0.21595  0.57022  Biso   1.000  C
  C314     1.0000 0.45600  0.17443  0.57204  Biso   1.000  C
  H302     1.0000 0.45490  0.16300  0.53690  Biso   1.000  H
  C315     1.0000 0.48390  0.13413  0.65485  Biso   1.000  C
  H303     1.0000 0.44520  0.15220  0.67060  Biso   1.000  H
  C316     1.0000 0.49760  0.13920  0.60348  Biso   1.000  C
  C317     1.0000 0.55530  0.11248  0.58124  Biso   1.000  C
  C318     1.0000 0.59900  0.08215  0.60929  Biso   1.000  C
  C319     1.0000 0.58290  0.07785  0.66031  Biso   1.000  C
  C320     1.0000 0.52480  0.10351  0.68401  Biso   1.000  C
  C321     1.0000 0.51360  0.09938  0.74055  Biso   1.000  C
  H304     1.0000 0.53020  0.06900  0.74940  Biso   1.000  H
  C322     1.0000 0.55500  0.17333  0.77823  Biso   1.000  C
  H305     1.0000 0.50300  0.18400  0.77060  Biso   1.000  H
  C323     1.0000 0.57250  0.12972  0.76727  Biso   1.000  C
  C324     1.0000 0.64970  0.11485  0.77765  Biso   1.000  C
  C325     1.0000 0.70700  0.14256  0.79833  Biso   1.000  C
  C326     1.0000 0.68660  0.18552  0.80994  Biso   1.000  C
  C327     1.0000 0.60960  0.20180  0.79962  Biso   1.000  C
  C328     1.0000 0.59120  0.25012  0.80852  Biso   1.000  C
  H306     1.0000 0.62380  0.25950  0.83800  Biso   1.000  H
  C329     1.0000 0.56690  0.28859  0.72466  Biso   1.000  C
  H307     1.0000 0.51370  0.27780  0.72550  Biso   1.000  H
  C330     1.0000 0.61850  0.27778  0.76357  Biso   1.000  C
  C331     1.0000 0.69730  0.29220  0.76065  Biso   1.000  C
  C332     1.0000 0.72400  0.31633  0.71944  Biso   1.000  C
  C333     1.0000 0.66990  0.32850  0.68192  Biso   1.000  C
  C334     1.0000 0.59060  0.31480  0.68416  Biso   1.000  C
  C335     1.0000 0.53270  0.32504  0.64152  Biso   1.000  C
  H308     1.0000 0.55180  0.35260  0.62550  Biso   1.000  H
  C336     1.0000 0.36880  0.18248  0.58630  Biso   1.000  C
  H309     1.0000 0.34790  0.20690  0.56580  Biso   1.000  H
  H310     1.0000 0.36650  0.19160  0.62190  Biso   1.000  H
  C337     1.0000 0.31480  0.14290  0.57910  Biso   1.000  C
  H311     1.0000 0.32330  0.12280  0.60760  Biso   1.000  H
  H312     1.0000 0.33180  0.12750  0.54830  Biso   1.000  H
  C338     1.0000 0.23260  0.15160  0.57540  Biso   1.000  C
  H313     1.0000 0.20340  0.12420  0.57080  Biso   1.000  H
  H314     1.0000 0.22270  0.17070  0.54660  Biso   1.000  H
  H315     1.0000 0.21420  0.16600  0.60610  Biso   1.000  H
  C339     1.0000 0.42760  0.10396  0.75770  Biso   1.000  C
  H316     1.0000 0.41210  0.13510  0.75690  Biso   1.000  H
  H317     1.0000 0.39220  0.08790  0.73440  Biso   1.000  H
  C340     1.0000 0.41640  0.08610  0.81110  Biso   1.000  C
  H318     1.0000 0.45160  0.10250  0.83420  Biso   1.000  H
  H319     1.0000 0.43350  0.05520  0.81170  Biso   1.000  H
  C341     1.0000 0.33290  0.08890  0.82990  Biso   1.000  C
  H320     1.0000 0.29710  0.07370  0.80660  Biso   1.000  H
  H321     1.0000 0.32960  0.07520  0.86300  Biso   1.000  H
  H322     1.0000 0.31700  0.11950  0.83240  Biso   1.000  H
  C342     1.0000 0.50370  0.25860  0.82170  Biso   1.000  C
  H323     1.0000 0.48930  0.24050  0.85110  Biso   1.000  H
  H324     1.0000 0.46990  0.24910  0.79330  Biso   1.000  H
  C343     1.0000 0.48450  0.30604  0.83350  Biso   1.000  C
  H325     1.0000 0.50570  0.32490  0.80650  Biso   1.000  H
  H326     1.0000 0.51120  0.31440  0.86520  Biso   1.000  H
  C344     1.0000 0.39530  0.31330  0.83850  Biso   1.000  C
  H327     1.0000 0.37570  0.29860  0.86870  Biso   1.000  H
  H328     1.0000 0.38450  0.34470  0.84100  Biso   1.000  H
  H329     1.0000 0.36800  0.30150  0.80900  Biso   1.000  H
  C345     1.0000 0.44710  0.33299  0.65780  Biso   1.000  C
  H330     1.0000 0.41390  0.33790  0.62760  Biso   1.000  H
  H331     1.0000 0.42690  0.30640  0.67460  Biso   1.000  H
  C346     1.0000 0.43640  0.37170  0.69340  Biso   1.000  C
  H332     1.0000 0.46950  0.36710  0.72370  Biso   1.000  H
  H333     1.0000 0.45530  0.39860  0.67660  Biso   1.000  H
  C347     1.0000 0.34900  0.37750  0.70890  Biso   1.000  C
  H334     1.0000 0.32960  0.35050  0.72440  Biso   1.000  H
  H335     1.0000 0.34480  0.40150  0.73300  Biso   1.000  H
  H336     1.0000 0.31670  0.38420  0.67920  Biso   1.000  H
  C348     1.0000 0.02790  0.24804  0.56301  Biso   1.000  C
  H337     1.0000 0.07170  0.22840  0.56170  Biso   1.000  H
  C349     1.0000 0.97380  0.24849  0.52310  Biso   1.000  C
  C350     1.0000 0.90880  0.27668  0.52632  Biso   1.000  C
  C351     1.0000 0.89710  0.30301  0.56867  Biso   1.000  C
  C352     1.0000 0.95420  0.30270  0.60684  Biso   1.000  C
  C353     1.0000 0.02030  0.27537  0.60486  Biso   1.000  C
  C354     1.0000 0.07960  0.27251  0.64846  Biso   1.000  C
  H338     1.0000 0.07770  0.30130  0.66600  Biso   1.000  H
  C355     1.0000 0.07430  0.19508  0.68616  Biso   1.000  C
  H339     1.0000 0.11320  0.18600  0.66240  Biso   1.000  H
  C356     1.0000 0.05050  0.23853  0.68601  Biso   1.000  C
  C357     1.0000 0.99170  0.25076  0.72044  Biso   1.000  C
  C358     1.0000 0.95770  0.22047  0.75302  Biso   1.000  C
  C359     1.0000 0.98580  0.17782  0.75372  Biso   1.000  C
  C360     1.0000 0.04390  0.16404  0.71973  Biso   1.000  C
  C361     1.0000 0.06620  0.11560  0.71836  Biso   1.000  C
  H340     1.0000 0.06030  0.10450  0.75340  Biso   1.000  H
  C362     1.0000 0.01230  0.08729  0.63516  Biso   1.000  C
  H341     1.0000 0.05900  0.09870  0.61970  Biso   1.000  H
  C363     1.0000 0.00370  0.09179  0.68696  Biso   1.000  C
  C364     1.0000 0.93380  0.07559  0.70853  Biso   1.000  C
  C365     1.0000 0.87310  0.05674  0.67943  Biso   1.000  C
  C366     1.0000 0.88570  0.05160  0.62771  Biso   1.000  C
  C367     1.0000 0.95530  0.06671  0.60510  Biso   1.000  C
  C368     1.0000 0.96660  0.06234  0.54842  Biso   1.000  C
  H342     1.0000 0.93700  0.03560  0.53770  Biso   1.000  H
  C369     1.0000 0.97140  0.13885  0.50940  Biso   1.000  C
  H343     1.0000 0.02710  0.13920  0.51630  Biso   1.000  H
  C370     1.0000 0.92770  0.10108  0.52176  Biso   1.000  C
  C371     1.0000 0.84670  0.10122  0.51106  Biso   1.000  C
  C372     1.0000 0.80920  0.13748  0.49029  Biso   1.000  C
  C373     1.0000 0.85470  0.17425  0.47810  Biso   1.000  C
  C374     1.0000 0.93730  0.17567  0.48768  Biso   1.000  C
  C375     1.0000 0.98420  0.21751  0.47857  Biso   1.000  C
  H344     1.0000 0.95980  0.23210  0.44870  Biso   1.000  H
  C376     1.0000 0.16640  0.26587  0.63160  Biso   1.000  C
  H345     1.0000 0.16990  0.23910  0.61110  Biso   1.000  H
  H346     1.0000 0.20070  0.26180  0.66150  Biso   1.000  H
  C377     1.0000 0.27260  0.29800  0.57540  Biso   1.000  C
  H347     1.0000 0.28680  0.32470  0.55720  Biso   1.000  H
  H348     1.0000 0.26740  0.27380  0.55170  Biso   1.000  H
  H349     1.0000 0.31450  0.29130  0.59990  Biso   1.000  H
  C378     1.0000 0.15150  0.10591  0.70290  Biso   1.000  C
  H350     1.0000 0.15910  0.11510  0.66760  Biso   1.000  H
  H351     1.0000 0.18830  0.12330  0.72390  Biso   1.000  H
  C379     1.0000 0.17330  0.05730  0.70770  Biso   1.000  C
  H352     1.0000 0.13090  0.04020  0.69090  Biso   1.000  H
  H353     1.0000 0.17200  0.04960  0.74380  Biso   1.000  H
  C380     1.0000 0.24640  0.04400  0.68860  Biso   1.000  C
  H354     1.0000 0.25290  0.01260  0.69400  Biso   1.000  H
  H355     1.0000 0.28950  0.05980  0.70560  Biso   1.000  H
  H356     1.0000 0.24830  0.05020  0.65260  Biso   1.000  H
  C381     1.0000 0.05500  0.05589  0.53348  Biso   1.000  C
  H357     1.0000 0.08530  0.08240  0.54290  Biso   1.000  H
  H358     1.0000 0.05810  0.05280  0.49660  Biso   1.000  H
  C382     1.0000 0.09450  0.01676  0.55740  Biso   1.000  C
  H359     1.0000 0.07220  0.98970  0.54270  Biso   1.000  H
  H360     1.0000 0.08280  0.01660  0.59380  Biso   1.000  H
  C383     1.0000 0.18400  0.01750  0.54970  Biso   1.000  C
  H361     1.0000 0.20660  0.04340  0.56590  Biso   1.000  H
  H362     1.0000 0.20770  0.99120  0.56440  Biso   1.000  H
  H363     1.0000 0.19570  0.01840  0.51370  Biso   1.000  H
  C384     1.0000 0.07240  0.20888  0.46607  Biso   1.000  C
  H364     1.0000 0.07500  0.18800  0.43780  Biso   1.000  H
  H365     1.0000 0.09800  0.19490  0.49540  Biso   1.000  H
  C385     1.0000 0.12070  0.24955  0.45206  Biso   1.000  C
  H366     1.0000 0.11590  0.27130  0.47930  Biso   1.000  H
  H367     1.0000 0.09780  0.26260  0.42130  Biso   1.000  H
  C386     1.0000 0.20860  0.23970  0.44320  Biso   1.000  C
  H368     1.0000 0.21380  0.21730  0.41730  Biso   1.000  H
  H369     1.0000 0.23600  0.26630  0.43230  Biso   1.000  H
  H370     1.0000 0.23290  0.22930  0.47450  Biso   1.000  H
  C387     1.0000 0.53650  0.00970  0.49840  Biso   1.000  C
  H371     1.0000 0.56160  0.01870  0.52860  Biso   1.000  H
  C388     1.0000 0.85190  0.98456  0.81120  Biso   1.000  C
  H372     1.0000 0.87340  0.98260  0.77840  Biso   1.000  H
  C389     1.0000 0.86330  0.95024  0.84360  Biso   1.000  C
  H373     1.0000 0.89090  0.92480  0.83300  Biso   1.000  H
  C390     1.0000 0.83400  0.95330  0.89170  Biso   1.000  C
  H374     1.0000 0.84160  0.93020  0.91500  Biso   1.000  H
  C391     1.0000 0.79360  0.99050  0.90560  Biso   1.000  C
  H375     1.0000 0.77320  0.99350  0.93860  Biso   1.000  H
  C392     1.0000 0.78310  0.02350  0.87080  Biso   1.000  C
  H376     1.0000 0.75480  0.04910  0.88040  Biso   1.000  H
  H377     1.0000 0.26290  0.14980  0.59510  Biso   1.000  H
  H378     1.0000 0.33860  0.11860  0.59840  Biso   1.000  H
  C393     1.0000 0.29910  0.12790  0.53320  Biso   1.000  C
  H379     1.0000 0.26370  0.10260  0.53560  Biso   1.000  H
  H380     1.0000 0.34920  0.11940  0.51690  Biso   1.000  H
  H381     1.0000 0.27290  0.15080  0.51350  Biso   1.000  H
  C394     1.0000 0.19770  0.34100  0.61210  Biso   1.000  C
  H382     1.0000 0.22160  0.35820  0.58500  Biso   1.000  H
  H383     1.0000 0.22880  0.34510  0.64290  Biso   1.000  H
  H384     1.0000 0.14260  0.35080  0.61770  Biso   1.000  H
  C395     1.0000 0.16120  0.03490  0.75240  Biso   1.000  C
  H385     1.0000 0.17860  0.00460  0.74840  Biso   1.000  H
  H386     1.0000 0.10430  0.03560  0.76110  Biso   1.000  H
  H387     1.0000 0.19230  0.04870  0.77920  Biso   1.000  H
  C396     1.0000 0.19760  0.30440  0.60120  Biso   1.000  C
  H388     1.0000 0.20360  0.32970  0.62400  Biso   1.000  H
  H389     1.0000 0.15660  0.31230  0.57600  Biso   1.000  H
  H390     1.0000 0.16890  0.30300  0.56880  Biso   1.000  H
  H391     1.0000 0.25410  0.29730  0.59360  Biso   1.000  H
  H392     1.0000 0.23070  0.05460  0.69930  Biso   1.000  H
  H393     1.0000 0.14340  0.04160  0.68130  Biso   1.000  H
  O75      1.0000 0.05180  0.42330  0.75010  Biso   1.000  O
  C397     1.0000 0.05620  0.41420  0.70450  Biso   1.000  C
  N27      1.0000 0.11320  0.43330  0.67640  Biso   1.000  N
  C398     1.0000 0.11880  0.42260  0.62370  Biso   1.000  C
  H394     1.0000 0.16290  0.43900  0.60850  Biso   1.000  H
  H395     1.0000 0.06860  0.43030  0.60690  Biso   1.000  H
  H396     1.0000 0.12870  0.39130  0.61980  Biso   1.000  H
  C399     1.0000 0.17480  0.45900  0.69970  Biso   1.000  C
  H397     1.0000 0.21090  0.47030  0.67390  Biso   1.000  H
  H398     1.0000 0.20500  0.44080  0.72320  Biso   1.000  H
  H399     1.0000 0.15030  0.48340  0.71780  Biso   1.000  H
  Zn25     1.0000 0.74910  0.81282  0.98371  Biso   1.000  Zn
  Zn26     1.0000 0.80707  0.69963  0.03267  Biso   1.000  Zn
  Zn27     1.0000 0.82102  0.58338  0.98338  Biso   1.000  Zn
  Zn28     1.0000 0.77688  0.52849  0.85587  Biso   1.000  Zn
  Zn29     1.0000 0.70186  0.56869  0.72763  Biso   1.000  Zn
  Zn30     1.0000 0.64433  0.67984  0.67777  Biso   1.000  Zn
  Zn31     1.0000 0.63401  0.79557  0.73027  Biso   1.000  Zn
  Zn32     1.0000 0.67761  0.85292  0.85548  Biso   1.000  Zn
  O76      1.0000 0.84590  0.82629  0.93728  Biso   1.000  O
  O77      1.0000 0.81850  0.75816  0.99713  Biso   1.000  O
  O78      1.0000 0.91530  0.68825  0.99947  Biso   1.000  O
  O79      1.0000 0.92650  0.61486  0.96914  Biso   1.000  O
  O80      1.0000 0.84140  0.55886  0.91234  Biso   1.000  O
  O81      1.0000 0.87120  0.54795  0.81429  Biso   1.000  O
  O82      1.0000 0.82490  0.57321  0.73341  Biso   1.000  O
  O83      1.0000 0.71660  0.62845  0.69533  Biso   1.000  O
  O84      1.0000 0.75350  0.71062  0.66961  Biso   1.000  O
  O85      1.0000 0.74640  0.78370  0.70283  Biso   1.000  O
  O86      1.0000 0.69690  0.82693  0.78516  Biso   1.000  O
  O87      1.0000 0.79910  0.85230  0.85707  Biso   1.000  O
  O88      1.0000 0.65010  0.77958  0.00969  Biso   1.000  O
  O89      1.0000 0.67090  0.82694  0.92605  Biso   1.000  O
  O90      1.0000 0.56080  0.83014  0.85320  Biso   1.000  O
  O91      1.0000 0.53630  0.79297  0.77518  Biso   1.000  O
  O92      1.0000 0.60250  0.73257  0.71569  Biso   1.000  O
  O93      1.0000 0.54740  0.65074  0.71075  Biso   1.000  O
  O94      1.0000 0.58230  0.57916  0.74084  Biso   1.000  O
  O95      1.0000 0.69770  0.54549  0.79963  Biso   1.000  O
  O96      1.0000 0.67550  0.53256  0.89831  Biso   1.000  O
  O97      1.0000 0.70310  0.56648  0.97780  Biso   1.000  O
  O98      1.0000 0.77170  0.63774  0.01541  Biso   1.000  O
  O99      1.0000 0.68700  0.70899  0.04180  Biso   1.000  O
  N28      1.0000 0.83850  0.69693  0.10643  Biso   1.000  N
  C400     1.0000 0.79890  0.66692  0.13384  Biso   1.000  C
  H400     1.0000 0.75930  0.64990  0.11740  Biso   1.000  H
  C401     1.0000 0.81200  0.65930  0.18391  Biso   1.000  C
  H401     1.0000 0.78290  0.63770  0.20170  Biso   1.000  H
  C402     1.0000 0.86780  0.68390  0.20640  Biso   1.000  C
  H402     1.0000 0.87830  0.67940  0.24100  Biso   1.000  H
  C403     1.0000 0.90980  0.71480  0.18131  Biso   1.000  C
  H403     1.0000 0.94830  0.73220  0.19810  Biso   1.000  H
  C404     1.0000 0.89460  0.72048  0.12936  Biso   1.000  C
  C405     1.0000 0.93840  0.75203  0.09880  Biso   1.000  C
  H404     1.0000 0.92430  0.75380  0.06440  Biso   1.000  H
  C406     1.0000 0.99590  0.77845  0.11450  Biso   1.000  C
  H405     1.0000 0.00750  0.77820  0.14940  Biso   1.000  H
  C407     1.0000 0.04320  0.80796  0.08330  Biso   1.000  C
  C408     1.0000 0.02170  0.81830  0.03460  Biso   1.000  C
  H406     1.0000 0.97480  0.80610  0.02020  Biso   1.000  H
  C409     1.0000 0.06850  0.84610  0.00740  Biso   1.000  C
  H407     1.0000 0.05290  0.85410  0.97440  Biso   1.000  H
  C410     1.0000 0.13760  0.86260  0.02720  Biso   1.000  C
  H408     1.0000 0.17130  0.88110  0.00800  Biso   1.000  H
  C411     1.0000 0.15710  0.85130  0.07620  Biso   1.000  C
  H409     1.0000 0.20520  0.86220  0.09040  Biso   1.000  H
  N29      1.0000 0.10990  0.82543  0.10411  Biso   1.000  N
  N30      1.0000 0.86160  0.54533  0.04380  Biso   1.000  N
  C412     1.0000 0.82700  0.55610  0.08800  Biso   1.000  C
  H410     1.0000 0.78820  0.57870  0.08690  Biso   1.000  H
  C413     1.0000 0.84140  0.53810  0.13420  Biso   1.000  C
  H411     1.0000 0.81320  0.54670  0.16350  Biso   1.000  H
  C414     1.0000 0.89830  0.50770  0.13470  Biso   1.000  C
  H412     1.0000 0.91350  0.49570  0.16610  Biso   1.000  H
  C415     1.0000 0.93550  0.49310  0.09300  Biso   1.000  C
  H413     1.0000 0.96890  0.46800  0.09370  Biso   1.000  H
  C416     1.0000 0.92210  0.51730  0.04780  Biso   1.000  C
  N31      1.0000 0.77680  0.46069  0.85659  Biso   1.000  N
  C417     1.0000 0.75090  0.44335  0.90005  Biso   1.000  C
  H414     1.0000 0.75090  0.46120  0.92910  Biso   1.000  H
  C418     1.0000 0.72450  0.40124  0.90434  Biso   1.000  C
  H415     1.0000 0.70820  0.39000  0.93590  Biso   1.000  H
  C419     1.0000 0.72230  0.37577  0.86240  Biso   1.000  C
  H416     1.0000 0.70290  0.34670  0.86420  Biso   1.000  H
  C420     1.0000 0.74820  0.39255  0.81771  Biso   1.000  C
  H417     1.0000 0.74570  0.37520  0.78820  Biso   1.000  H
  C421     1.0000 0.77850  0.43516  0.81513  Biso   1.000  C
  C422     1.0000 0.81370  0.45290  0.76966  Biso   1.000  C
  H418     1.0000 0.83540  0.48150  0.77120  Biso   1.000  H
  C423     1.0000 0.81770  0.43199  0.72604  Biso   1.000  C
  H419     1.0000 0.79270  0.40420  0.72480  Biso   1.000  H
  C424     1.0000 0.85610  0.44676  0.67979  Biso   1.000  C
  C425     1.0000 0.89190  0.48711  0.67390  Biso   1.000  C
  H420     1.0000 0.89300  0.50710  0.70110  Biso   1.000  H
  C426     1.0000 0.92630  0.49853  0.62860  Biso   1.000  C
  H421     1.0000 0.95090  0.52620  0.62450  Biso   1.000  H
  C427     1.0000 0.92430  0.46930  0.58920  Biso   1.000  C
  H422     1.0000 0.94670  0.47650  0.55760  Biso   1.000  H
  C428     1.0000 0.88890  0.42918  0.59730  Biso   1.000  C
  H423     1.0000 0.88770  0.40890  0.57040  Biso   1.000  H
  N32      1.0000 0.85610  0.41758  0.64118  Biso   1.000  N
  N33      1.0000 0.68830  0.52054  0.67595  Biso   1.000  N
  N34      1.0000 0.59340  0.82995  0.66931  Biso   1.000  N
  C429     1.0000 0.61010  0.81321  0.62373  Biso   1.000  C
  H424     1.0000 0.64210  0.78770  0.62190  Biso   1.000  H
  C430     1.0000 0.58320  0.83135  0.57996  Biso   1.000  C
  H425     1.0000 0.59500  0.81810  0.54860  Biso   1.000  H
  C431     1.0000 0.53920  0.86870  0.58200  Biso   1.000  C
  H426     1.0000 0.52080  0.88210  0.55200  Biso   1.000  H
  C432     1.0000 0.52200  0.88667  0.62750  Biso   1.000  C
  H427     1.0000 0.49170  0.91280  0.62930  Biso   1.000  H
  C433     1.0000 0.54880  0.86651  0.67165  Biso   1.000  C
  C434     1.0000 0.51670  0.88130  0.71930  Biso   1.000  C
  H428     1.0000 0.53930  0.87020  0.74950  Biso   1.000  H
  C435     1.0000 0.45650  0.90990  0.72230  Biso   1.000  C
  H429     1.0000 0.43710  0.92160  0.69170  Biso   1.000  H
  C436     1.0000 0.41790  0.92460  0.76850  Biso   1.000  C
  C437     1.0000 0.44040  0.91080  0.81590  Biso   1.000  C
  H430     1.0000 0.48390  0.89110  0.81940  Biso   1.000  H
  C438     1.0000 0.40050  0.92540  0.85810  Biso   1.000  C
  H431     1.0000 0.41200  0.91340  0.89010  Biso   1.000  H
  C439     1.0000 0.34360  0.95770  0.85290  Biso   1.000  C
  H432     1.0000 0.31550  0.96890  0.88110  Biso   1.000  H
  C440     1.0000 0.32900  0.97320  0.80510  Biso   1.000  C
  H433     1.0000 0.29370  0.99730  0.80170  Biso   1.000  H
  N35      1.0000 0.36130  0.95640  0.76340  Biso   1.000  N
  C441     1.0000 0.00550  0.75090  0.89649  Biso   1.000  C
  H434     1.0000 0.04680  0.74870  0.87220  Biso   1.000  H
  C442     1.0000 0.95860  0.78895  0.89761  Biso   1.000  C
  C443     1.0000 0.89670  0.79108  0.93291  Biso   1.000  C
  C444     1.0000 0.88200  0.75633  0.96555  Biso   1.000  C
  C445     1.0000 0.93210  0.72004  0.96448  Biso   1.000  C
  C446     1.0000 0.99390  0.71595  0.92978  Biso   1.000  C
  C447     1.0000 0.04400  0.67443  0.92796  Biso   1.000  C
  H435     1.0000 0.04510  0.66300  0.96310  Biso   1.000  H
  C448     1.0000 0.01610  0.63413  0.84515  Biso   1.000  C
  H436     1.0000 0.05480  0.65220  0.82940  Biso   1.000  H
  C449     1.0000 0.00240  0.63920  0.89652  Biso   1.000  C
  C450     1.0000 0.94470  0.61248  0.91876  Biso   1.000  C
  C451     1.0000 0.90100  0.58215  0.89071  Biso   1.000  C
  C452     1.0000 0.91710  0.57785  0.83969  Biso   1.000  C
  C453     1.0000 0.97520  0.60351  0.81599  Biso   1.000  C
  C454     1.0000 0.98640  0.59938  0.75945  Biso   1.000  C
  H437     1.0000 0.96980  0.56900  0.75060  Biso   1.000  H
  C455     1.0000 0.94500  0.67333  0.72177  Biso   1.000  C
  H438     1.0000 0.99700  0.68400  0.72940  Biso   1.000  H
  C456     1.0000 0.92750  0.62972  0.73273  Biso   1.000  C
  C457     1.0000 0.85030  0.61485  0.72235  Biso   1.000  C
  C458     1.0000 0.79300  0.64256  0.70167  Biso   1.000  C
  C459     1.0000 0.81340  0.68552  0.69006  Biso   1.000  C
  C460     1.0000 0.89040  0.70180  0.70038  Biso   1.000  C
  C461     1.0000 0.90880  0.75012  0.69148  Biso   1.000  C
  H439     1.0000 0.87620  0.75950  0.66200  Biso   1.000  H
  C462     1.0000 0.93310  0.78859  0.77534  Biso   1.000  C
  H440     1.0000 0.98630  0.77780  0.77450  Biso   1.000  H
  C463     1.0000 0.88150  0.77778  0.73643  Biso   1.000  C
  C464     1.0000 0.80270  0.79220  0.73935  Biso   1.000  C
  C465     1.0000 0.77600  0.81633  0.78056  Biso   1.000  C
  C466     1.0000 0.83010  0.82850  0.81808  Biso   1.000  C
  C467     1.0000 0.90940  0.81480  0.81584  Biso   1.000  C
  C468     1.0000 0.96730  0.82504  0.85848  Biso   1.000  C
  H441     1.0000 0.94820  0.85260  0.87450  Biso   1.000  H
  C469     1.0000 0.13120  0.68248  0.91370  Biso   1.000  C
  H442     1.0000 0.15210  0.70690  0.93420  Biso   1.000  H
  H443     1.0000 0.13350  0.69160  0.87810  Biso   1.000  H
  C470     1.0000 0.18520  0.64290  0.92090  Biso   1.000  C
  H444     1.0000 0.17670  0.62280  0.89240  Biso   1.000  H
  H445     1.0000 0.16820  0.62750  0.95170  Biso   1.000  H
  C471     1.0000 0.26740  0.65160  0.92460  Biso   1.000  C
  H446     1.0000 0.29660  0.62420  0.92920  Biso   1.000  H
  H447     1.0000 0.27730  0.67070  0.95340  Biso   1.000  H
  H448     1.0000 0.28580  0.66600  0.89390  Biso   1.000  H
  C472     1.0000 0.07240  0.60396  0.74230  Biso   1.000  C
  H449     1.0000 0.08790  0.63510  0.74310  Biso   1.000  H
  H450     1.0000 0.10780  0.58790  0.76560  Biso   1.000  H
  C473     1.0000 0.08360  0.58610  0.68890  Biso   1.000  C
  H451     1.0000 0.04840  0.60250  0.66580  Biso   1.000  H
  H452     1.0000 0.06650  0.55520  0.68830  Biso   1.000  H
  C474     1.0000 0.16710  0.58890  0.67010  Biso   1.000  C
  H453     1.0000 0.20290  0.57370  0.69340  Biso   1.000  H
  H454     1.0000 0.17040  0.57520  0.63700  Biso   1.000  H
  H455     1.0000 0.18300  0.61950  0.66760  Biso   1.000  H
  C475     1.0000 0.99630  0.75860  0.67830  Biso   1.000  C
  H456     1.0000 0.01070  0.74050  0.64890  Biso   1.000  H
  H457     1.0000 0.03010  0.74910  0.70670  Biso   1.000  H
  C476     1.0000 0.01550  0.80604  0.66650  Biso   1.000  C
  H458     1.0000 0.99430  0.82490  0.69350  Biso   1.000  H
  H459     1.0000 0.98880  0.81440  0.63480  Biso   1.000  H
  C477     1.0000 0.10470  0.81330  0.66150  Biso   1.000  C
  H460     1.0000 0.12430  0.79860  0.63130  Biso   1.000  H
  H461     1.0000 0.11550  0.84470  0.65900  Biso   1.000  H
  H462     1.0000 0.13200  0.80150  0.69100  Biso   1.000  H
  C478     1.0000 0.05290  0.83299  0.84220  Biso   1.000  C
  H463     1.0000 0.08610  0.83790  0.87240  Biso   1.000  H
  H464     1.0000 0.07310  0.80640  0.82540  Biso   1.000  H
  C479     1.0000 0.06360  0.87170  0.80660  Biso   1.000  C
  H465     1.0000 0.03050  0.86710  0.77630  Biso   1.000  H
  H466     1.0000 0.04470  0.89860  0.82340  Biso   1.000  H
  C480     1.0000 0.15100  0.87750  0.79110  Biso   1.000  C
  H467     1.0000 0.17040  0.85050  0.77560  Biso   1.000  H
  H468     1.0000 0.15520  0.90150  0.76700  Biso   1.000  H
  H469     1.0000 0.18330  0.88420  0.82080  Biso   1.000  H
  C481     1.0000 0.47210  0.74804  0.93699  Biso   1.000  C
  H470     1.0000 0.42830  0.72840  0.93830  Biso   1.000  H
  C482     1.0000 0.52620  0.74849  0.97690  Biso   1.000  C
  C483     1.0000 0.59120  0.77668  0.97368  Biso   1.000  C
  C484     1.0000 0.60290  0.80301  0.93133  Biso   1.000  C
  C485     1.0000 0.54580  0.80270  0.89316  Biso   1.000  C
  C486     1.0000 0.47970  0.77537  0.89514  Biso   1.000  C
  C487     1.0000 0.42040  0.77251  0.85154  Biso   1.000  C
  H471     1.0000 0.42230  0.80130  0.83400  Biso   1.000  H
  C488     1.0000 0.42570  0.69508  0.81384  Biso   1.000  C
  H472     1.0000 0.38680  0.68600  0.83760  Biso   1.000  H
  C489     1.0000 0.44950  0.73853  0.81399  Biso   1.000  C
  C490     1.0000 0.50830  0.75076  0.77956  Biso   1.000  C
  C491     1.0000 0.54230  0.72047  0.74698  Biso   1.000  C
  C492     1.0000 0.51420  0.67782  0.74628  Biso   1.000  C
  C493     1.0000 0.45610  0.66404  0.78027  Biso   1.000  C
  C494     1.0000 0.43380  0.61560  0.78164  Biso   1.000  C
  H473     1.0000 0.43970  0.60450  0.74660  Biso   1.000  H
  C495     1.0000 0.48770  0.58729  0.86484  Biso   1.000  C
  H474     1.0000 0.44100  0.59870  0.88030  Biso   1.000  H
  C496     1.0000 0.49630  0.59179  0.81304  Biso   1.000  C
  C497     1.0000 0.56620  0.57559  0.79147  Biso   1.000  C
  C498     1.0000 0.62690  0.55674  0.82057  Biso   1.000  C
  C499     1.0000 0.61430  0.55160  0.87229  Biso   1.000  C
  C500     1.0000 0.54470  0.56671  0.89490  Biso   1.000  C
  C501     1.0000 0.53340  0.56234  0.95158  Biso   1.000  C
  H475     1.0000 0.56300  0.53560  0.96230  Biso   1.000  H
  C502     1.0000 0.52860  0.63885  0.99060  Biso   1.000  C
  H476     1.0000 0.47290  0.63920  0.98370  Biso   1.000  H
  C503     1.0000 0.57230  0.60108  0.97824  Biso   1.000  C
  C504     1.0000 0.65330  0.60122  0.98894  Biso   1.000  C
  C505     1.0000 0.69080  0.63748  0.00971  Biso   1.000  C
  C506     1.0000 0.64530  0.67425  0.02190  Biso   1.000  C
  C507     1.0000 0.56270  0.67567  0.01232  Biso   1.000  C
  C508     1.0000 0.51580  0.71751  0.02143  Biso   1.000  C
  H477     1.0000 0.54020  0.73210  0.05130  Biso   1.000  H
  C509     1.0000 0.33360  0.76587  0.86840  Biso   1.000  C
  H478     1.0000 0.33010  0.73910  0.88890  Biso   1.000  H
  H479     1.0000 0.29930  0.76180  0.83850  Biso   1.000  H
  C510     1.0000 0.22740  0.79800  0.92460  Biso   1.000  C
  H480     1.0000 0.21320  0.82470  0.94280  Biso   1.000  H
  H481     1.0000 0.23260  0.77380  0.94830  Biso   1.000  H
  H482     1.0000 0.18550  0.79130  0.90010  Biso   1.000  H
  C511     1.0000 0.34850  0.60591  0.79710  Biso   1.000  C
  H483     1.0000 0.34090  0.61510  0.83240  Biso   1.000  H
  H484     1.0000 0.31170  0.62330  0.77610  Biso   1.000  H
  C512     1.0000 0.32670  0.55730  0.79230  Biso   1.000  C
  H485     1.0000 0.36910  0.54020  0.80910  Biso   1.000  H
  H486     1.0000 0.32800  0.54960  0.75620  Biso   1.000  H
  C513     1.0000 0.25360  0.54400  0.81140  Biso   1.000  C
  H487     1.0000 0.24710  0.51260  0.80600  Biso   1.000  H
  H488     1.0000 0.21050  0.55980  0.79440  Biso   1.000  H
  H489     1.0000 0.25170  0.55020  0.84740  Biso   1.000  H
  C514     1.0000 0.44500  0.55589  0.96652  Biso   1.000  C
  H490     1.0000 0.41470  0.58240  0.95710  Biso   1.000  H
  H491     1.0000 0.44190  0.55280  0.00340  Biso   1.000  H
  C515     1.0000 0.40550  0.51676  0.94260  Biso   1.000  C
  H492     1.0000 0.42780  0.48970  0.95730  Biso   1.000  H
  H493     1.0000 0.41720  0.51660  0.90620  Biso   1.000  H
  C516     1.0000 0.31600  0.51750  0.95030  Biso   1.000  C
  H494     1.0000 0.29340  0.54340  0.93410  Biso   1.000  H
  H495     1.0000 0.29230  0.49120  0.93560  Biso   1.000  H
  H496     1.0000 0.30430  0.51840  0.98630  Biso   1.000  H
  C517     1.0000 0.42760  0.70888  0.03393  Biso   1.000  C
  H497     1.0000 0.42500  0.68800  0.06220  Biso   1.000  H
  H498     1.0000 0.40200  0.69490  0.00460  Biso   1.000  H
  C518     1.0000 0.37930  0.74955  0.04794  Biso   1.000  C
  H499     1.0000 0.38410  0.77130  0.02070  Biso   1.000  H
  H500     1.0000 0.40220  0.76260  0.07870  Biso   1.000  H
  C519     1.0000 0.29140  0.73970  0.05680  Biso   1.000  C
  H501     1.0000 0.28620  0.71730  0.08270  Biso   1.000  H
  H502     1.0000 0.26400  0.76630  0.06770  Biso   1.000  H
  H503     1.0000 0.26710  0.72930  0.02550  Biso   1.000  H
  C520     1.0000 0.96350  0.50970  0.00160  Biso   1.000  C
  H504     1.0000 0.93840  0.51870  0.97140  Biso   1.000  H
  C521     1.0000 0.64810  0.48456  0.68880  Biso   1.000  C
  H505     1.0000 0.62660  0.48260  0.72160  Biso   1.000  H
  C522     1.0000 0.63670  0.45024  0.65640  Biso   1.000  C
  H506     1.0000 0.60910  0.42480  0.66700  Biso   1.000  H
  C523     1.0000 0.66600  0.45330  0.60830  Biso   1.000  C
  H507     1.0000 0.65840  0.43020  0.58500  Biso   1.000  H
  C524     1.0000 0.70640  0.49050  0.59440  Biso   1.000  C
  H508     1.0000 0.72680  0.49350  0.56140  Biso   1.000  H
  C525     1.0000 0.71690  0.52350  0.62920  Biso   1.000  C
  H509     1.0000 0.74520  0.54910  0.61960  Biso   1.000  H
  H510     1.0000 0.23710  0.64980  0.90490  Biso   1.000  H
  H511     1.0000 0.16140  0.61860  0.90160  Biso   1.000  H
  C526     1.0000 0.20090  0.62790  0.96680  Biso   1.000  C
  H512     1.0000 0.23630  0.60260  0.96440  Biso   1.000  H
  H513     1.0000 0.15080  0.61940  0.98310  Biso   1.000  H
  H514     1.0000 0.22710  0.65080  0.98650  Biso   1.000  H
  C527     1.0000 0.30230  0.84100  0.88790  Biso   1.000  C
  H515     1.0000 0.27840  0.85820  0.91500  Biso   1.000  H
  H516     1.0000 0.27120  0.84510  0.85710  Biso   1.000  H
  H517     1.0000 0.35740  0.85080  0.88230  Biso   1.000  H
  C528     1.0000 0.33880  0.53490  0.74760  Biso   1.000  C
  H518     1.0000 0.32140  0.50460  0.75160  Biso   1.000  H
  H519     1.0000 0.39570  0.53560  0.73890  Biso   1.000  H
  H520     1.0000 0.30770  0.54870  0.72080  Biso   1.000  H
  C529     1.0000 0.30240  0.80440  0.89880  Biso   1.000  C
  H521     1.0000 0.29640  0.82970  0.87600  Biso   1.000  H
  H522     1.0000 0.34340  0.81230  0.92400  Biso   1.000  H
  H523     1.0000 0.33110  0.80300  0.93120  Biso   1.000  H
  H524     1.0000 0.24590  0.79730  0.90640  Biso   1.000  H
  H525     1.0000 0.26930  0.55460  0.80070  Biso   1.000  H
  H526     1.0000 0.35660  0.54160  0.81870  Biso   1.000  H
  O100     1.0000 0.44820  0.92330  0.74990  Biso   1.000  O
  C530     1.0000 0.44380  0.91420  0.79550  Biso   1.000  C
  N36      1.0000 0.38680  0.93330  0.82360  Biso   1.000  N
  C531     1.0000 0.38120  0.92260  0.87630  Biso   1.000  C
  H527     1.0000 0.33710  0.93900  0.89150  Biso   1.000  H
  H528     1.0000 0.43140  0.93030  0.89310  Biso   1.000  H
  H529     1.0000 0.37130  0.89130  0.88020  Biso   1.000  H
  C532     1.0000 0.32520  0.95900  0.80030  Biso   1.000  C
  H530     1.0000 0.28910  0.97030  0.82610  Biso   1.000  H
  H531     1.0000 0.29500  0.94080  0.77680  Biso   1.000  H
  H532     1.0000 0.34970  0.98340  0.78220  Biso   1.000  H
