data_image0
_cell_length_a       22.0938
_cell_length_b       26.5594
_cell_length_c       14.7698
_cell_angle_alpha    90
_cell_angle_beta     90
_cell_angle_gamma    90

_symmetry_space_group_name_H-M    "P 1"
_symmetry_int_tables_number       1

loop_
  _symmetry_equiv_pos_as_xyz
  'x, y, z'

loop_
  _atom_site_label
  _atom_site_occupancy
  _atom_site_fract_x
  _atom_site_fract_y
  _atom_site_fract_z
  _atom_site_thermal_displace_type
  _atom_site_B_iso_or_equiv
  _atom_site_type_symbol
  Cs1      1.0000 0.62119  0.30307  0.85867  Biso   1.000  Cs
  Cu1      1.0000 0.65452  0.30814  0.60224  Biso   1.000  Cu
  Si1      1.0000 0.54852  0.18375  0.70029  Biso   1.000  Si
  Si2      1.0000 0.49767  0.28390  0.67866  Biso   1.000  Si
  Si3      1.0000 0.50451  0.39473  0.69689  Biso   1.000  Si
  Si4      1.0000 0.63691  0.41782  0.69097  Biso   1.000  Si
  Si5      1.0000 0.68271  0.20040  0.69128  Biso   1.000  Si
  O1       1.0000 0.53960  0.18157  0.59360  Biso   1.000  O
  O2       1.0000 0.49140  0.50450  0.58500  Biso   1.000  O
  O3       1.0000 0.52590  0.50180  0.58280  Biso   1.000  O
  O4       1.0000 0.53690  0.28800  0.58650  Biso   1.000  O
  O5       1.0000 0.63700  0.44166  0.58840  Biso   1.000  O
  O6       1.0000 0.49890  0.39206  0.58740  Biso   1.000  O
  O7       1.0000 0.68160  0.26016  0.69010  Biso   1.000  O
  O8       1.0000 0.66100  0.36147  0.68990  Biso   1.000  O
  O9       1.0000 0.61940  0.17671  0.72980  Biso   1.000  O
  O10      1.0000 0.52590  0.23882  0.74100  Biso   1.000  O
  O11      1.0000 0.50500  0.33632  0.73440  Biso   1.000  O
  O12      1.0000 0.56730  0.42080  0.72850  Biso   1.000  O
  O13      1.0000 0.69330  0.17825  0.41120  Biso   1.000  O
  C1       1.0000 0.41700  0.27260  0.65580  Biso   1.000  C
  H1       1.0000 0.39540  0.27040  0.71210  Biso   1.000  H
  H2       1.0000 0.40100  0.29980  0.62050  Biso   1.000  H
  H3       1.0000 0.41250  0.24160  0.62300  Biso   1.000  H
  C2       1.0000 0.44100  0.42890  0.75040  Biso   1.000  C
  H4       1.0000 0.40340  0.41390  0.73230  Biso   1.000  H
  H5       1.0000 0.44490  0.42710  0.81510  Biso   1.000  H
  H6       1.0000 0.44180  0.46350  0.73160  Biso   1.000  H
  C3       1.0000 0.68330  0.45880  0.76540  Biso   1.000  C
  H7       1.0000 0.66740  0.49250  0.76430  Biso   1.000  H
  H8       1.0000 0.68210  0.44610  0.82630  Biso   1.000  H
  H9       1.0000 0.72440  0.45910  0.74430  Biso   1.000  H
  H10      1.0000 0.76100  0.39560  0.55310  Biso   1.000  H
  H11      1.0000 0.79000  0.25840  0.44690  Biso   1.000  H
  C4       1.0000 0.74580  0.17490  0.76430  Biso   1.000  C
  H12      1.0000 0.74490  0.13880  0.76320  Biso   1.000  H
  H13      1.0000 0.78400  0.18650  0.74140  Biso   1.000  H
  H14      1.0000 0.74060  0.18650  0.82540  Biso   1.000  H
  C5       1.0000 0.50530  0.13450  0.75920  Biso   1.000  C
  H15      1.0000 0.51200  0.13720  0.82320  Biso   1.000  H
  H16      1.0000 0.46300  0.13860  0.74650  Biso   1.000  H
  H17      1.0000 0.51840  0.10200  0.73860  Biso   1.000  H
  O14      1.0000 0.63490  0.03190  0.31970  Biso   1.000  O
  C6       1.0000 0.66620  0.04420  0.23830  Biso   1.000  C
  H18      1.0000 0.70970  0.04180  0.24520  Biso   1.000  H
  H19      1.0000 0.65540  0.07730  0.21570  Biso   1.000  H
  C7       1.0000 0.64100  0.00230  0.17980  Biso   1.000  C
  H20      1.0000 0.66850  0.99350  0.13120  Biso   1.000  H
  H21      1.0000 0.60190  0.01120  0.15450  Biso   1.000  H
  C8       1.0000 0.63560  0.96020  0.24900  Biso   1.000  C
  H22      1.0000 0.60180  0.93860  0.23260  Biso   1.000  H
  H23      1.0000 0.67210  0.94000  0.24740  Biso   1.000  H
  C9       1.0000 0.62610  0.98030  0.34340  Biso   1.000  C
  H24      1.0000 0.58570  0.97370  0.36630  Biso   1.000  H
  H25      1.0000 0.65620  0.96820  0.38590  Biso   1.000  H
  O15      1.0000 0.60270  0.03540  0.30890  Biso   1.000  O
  C10      1.0000 0.64050  0.05070  0.23570  Biso   1.000  C
  H26      1.0000 0.68310  0.04850  0.25060  Biso   1.000  H
  H27      1.0000 0.63090  0.08450  0.21490  Biso   1.000  H
  C11      1.0000 0.62130  0.01080  0.16840  Biso   1.000  C
  H28      1.0000 0.65300  0.00400  0.12450  Biso   1.000  H
  H29      1.0000 0.58450  0.02030  0.13680  Biso   1.000  H
  C12      1.0000 0.61110  0.96630  0.23100  Biso   1.000  C
  H30      1.0000 0.57950  0.94510  0.20610  Biso   1.000  H
  H31      1.0000 0.64790  0.94650  0.23440  Biso   1.000  H
  C13      1.0000 0.59320  0.98290  0.32500  Biso   1.000  C
  H32      1.0000 0.55130  0.97510  0.33920  Biso   1.000  H
  H33      1.0000 0.61970  0.96950  0.37150  Biso   1.000  H
  H34      1.0000 0.68470  0.18840  0.03210  Biso   1.000  H
  H35      1.0000 0.66290  0.16880  0.93760  Biso   1.000  H
  C14      1.0000 0.63390  0.12450  0.04180  Biso   1.000  C
  H36      1.0000 0.63370  0.12500  0.10750  Biso   1.000  H
  H37      1.0000 0.65800  0.09660  0.01940  Biso   1.000  H
  H38      1.0000 0.54340  0.10640  0.03460  Biso   1.000  H
  H39      1.0000 0.57240  0.11470  0.93860  Biso   1.000  H
  H40      1.0000 0.52470  0.18850  0.94710  Biso   1.000  H
  H41      1.0000 0.53460  0.20620  0.05370  Biso   1.000  H
  H42      1.0000 0.43220  0.20290  0.94000  Biso   1.000  H
  H43      1.0000 0.44290  0.17160  0.02950  Biso   1.000  H
  C15      1.0000 0.41740  0.24540  0.05580  Biso   1.000  C
  H44      1.0000 0.41650  0.23770  0.12000  Biso   1.000  H
  H45      1.0000 0.37670  0.25230  0.03440  Biso   1.000  H
  C16      1.0000 0.46100  0.28790  0.03390  Biso   1.000  C
  H46      1.0000 0.44220  0.30970  0.98930  Biso   1.000  H
  H47      1.0000 0.46710  0.30770  0.08830  Biso   1.000  H
  H48      1.0000 0.50310  0.38560  0.05340  Biso   1.000  H
  H49      1.0000 0.47820  0.46500  0.94720  Biso   1.000  H
  H50      1.0000 0.57310  0.49380  0.94190  Biso   1.000  H
  H51      1.0000 0.56750  0.50490  0.04640  Biso   1.000  H
  C17      1.0000 0.60740  0.43600  0.02040  Biso   1.000  C
  H52      1.0000 0.64410  0.44090  0.98540  Biso   1.000  H
  H53      1.0000 0.61840  0.43710  0.08400  Biso   1.000  H
  H54      1.0000 0.59020  0.44490  0.04350  Biso   1.000  H
  H55      1.0000 0.57960  0.43220  0.94110  Biso   1.000  H
  H56      1.0000 0.55180  0.39760  0.01640  Biso   1.000  H
  Cs2      1.0000 0.37881  0.69693  0.85867  Biso   1.000  Cs
  Cu2      1.0000 0.34548  0.69186  0.60224  Biso   1.000  Cu
  Si6      1.0000 0.45148  0.81625  0.70029  Biso   1.000  Si
  Si7      1.0000 0.50233  0.71610  0.67866  Biso   1.000  Si
  Si8      1.0000 0.49549  0.60527  0.69689  Biso   1.000  Si
  Si9      1.0000 0.36309  0.58218  0.69097  Biso   1.000  Si
  Si10     1.0000 0.31729  0.79960  0.69128  Biso   1.000  Si
  O16      1.0000 0.46040  0.81843  0.59360  Biso   1.000  O
  O17      1.0000 0.50860  0.49550  0.58500  Biso   1.000  O
  O18      1.0000 0.47410  0.49820  0.58280  Biso   1.000  O
  O19      1.0000 0.46310  0.71200  0.58650  Biso   1.000  O
  O20      1.0000 0.36300  0.55834  0.58840  Biso   1.000  O
  O21      1.0000 0.50110  0.60794  0.58740  Biso   1.000  O
  O22      1.0000 0.31840  0.73984  0.69010  Biso   1.000  O
  O23      1.0000 0.33900  0.63853  0.68990  Biso   1.000  O
  O24      1.0000 0.38060  0.82329  0.72980  Biso   1.000  O
  O25      1.0000 0.47410  0.76118  0.74100  Biso   1.000  O
  O26      1.0000 0.49500  0.66368  0.73440  Biso   1.000  O
  O27      1.0000 0.43270  0.57920  0.72850  Biso   1.000  O
  O28      1.0000 0.30670  0.82175  0.41120  Biso   1.000  O
  C18      1.0000 0.58300  0.72740  0.65580  Biso   1.000  C
  H57      1.0000 0.60460  0.72960  0.71210  Biso   1.000  H
  H58      1.0000 0.59900  0.70020  0.62050  Biso   1.000  H
  H59      1.0000 0.58750  0.75840  0.62300  Biso   1.000  H
  C19      1.0000 0.55900  0.57110  0.75040  Biso   1.000  C
  H60      1.0000 0.59660  0.58610  0.73230  Biso   1.000  H
  H61      1.0000 0.55510  0.57290  0.81510  Biso   1.000  H
  H62      1.0000 0.55820  0.53650  0.73160  Biso   1.000  H
  C20      1.0000 0.31670  0.54120  0.76540  Biso   1.000  C
  H63      1.0000 0.33260  0.50750  0.76430  Biso   1.000  H
  H64      1.0000 0.31790  0.55390  0.82630  Biso   1.000  H
  H65      1.0000 0.27560  0.54090  0.74430  Biso   1.000  H
  H66      1.0000 0.23900  0.60440  0.55310  Biso   1.000  H
  H67      1.0000 0.21000  0.74160  0.44690  Biso   1.000  H
  C21      1.0000 0.25420  0.82510  0.76430  Biso   1.000  C
  H68      1.0000 0.25510  0.86120  0.76320  Biso   1.000  H
  H69      1.0000 0.21600  0.81350  0.74140  Biso   1.000  H
  H70      1.0000 0.25940  0.81350  0.82540  Biso   1.000  H
  C22      1.0000 0.49470  0.86550  0.75920  Biso   1.000  C
  H71      1.0000 0.48800  0.86280  0.82320  Biso   1.000  H
  H72      1.0000 0.53700  0.86140  0.74650  Biso   1.000  H
  H73      1.0000 0.48160  0.89800  0.73860  Biso   1.000  H
  O29      1.0000 0.36510  0.96810  0.31970  Biso   1.000  O
  C23      1.0000 0.33380  0.95580  0.23830  Biso   1.000  C
  H74      1.0000 0.29030  0.95820  0.24520  Biso   1.000  H
  H75      1.0000 0.34460  0.92270  0.21570  Biso   1.000  H
  C24      1.0000 0.35900  0.99770  0.17980  Biso   1.000  C
  H76      1.0000 0.33150  0.00650  0.13120  Biso   1.000  H
  H77      1.0000 0.39810  0.98880  0.15450  Biso   1.000  H
  C25      1.0000 0.36440  0.03980  0.24900  Biso   1.000  C
  H78      1.0000 0.39820  0.06140  0.23260  Biso   1.000  H
  H79      1.0000 0.32790  0.06000  0.24740  Biso   1.000  H
  C26      1.0000 0.37390  0.01970  0.34340  Biso   1.000  C
  H80      1.0000 0.41430  0.02630  0.36630  Biso   1.000  H
  H81      1.0000 0.34380  0.03180  0.38590  Biso   1.000  H
  O30      1.0000 0.39730  0.96460  0.30890  Biso   1.000  O
  C27      1.0000 0.35950  0.94930  0.23570  Biso   1.000  C
  H82      1.0000 0.31690  0.95150  0.25060  Biso   1.000  H
  H83      1.0000 0.36910  0.91550  0.21490  Biso   1.000  H
  C28      1.0000 0.37870  0.98920  0.16840  Biso   1.000  C
  H84      1.0000 0.34700  0.99600  0.12450  Biso   1.000  H
  H85      1.0000 0.41550  0.97970  0.13680  Biso   1.000  H
  C29      1.0000 0.38890  0.03370  0.23100  Biso   1.000  C
  H86      1.0000 0.42050  0.05490  0.20610  Biso   1.000  H
  H87      1.0000 0.35210  0.05350  0.23440  Biso   1.000  H
  C30      1.0000 0.40680  0.01710  0.32500  Biso   1.000  C
  H88      1.0000 0.44870  0.02490  0.33920  Biso   1.000  H
  H89      1.0000 0.38030  0.03050  0.37150  Biso   1.000  H
  H90      1.0000 0.31530  0.81160  0.03210  Biso   1.000  H
  H91      1.0000 0.33710  0.83120  0.93760  Biso   1.000  H
  C31      1.0000 0.36610  0.87550  0.04180  Biso   1.000  C
  H92      1.0000 0.36630  0.87500  0.10750  Biso   1.000  H
  H93      1.0000 0.34200  0.90340  0.01940  Biso   1.000  H
  H94      1.0000 0.45660  0.89360  0.03460  Biso   1.000  H
  H95      1.0000 0.42760  0.88530  0.93860  Biso   1.000  H
  H96      1.0000 0.47530  0.81150  0.94710  Biso   1.000  H
  H97      1.0000 0.46540  0.79380  0.05370  Biso   1.000  H
  H98      1.0000 0.56780  0.79710  0.94000  Biso   1.000  H
  H99      1.0000 0.55710  0.82840  0.02950  Biso   1.000  H
  C32      1.0000 0.58260  0.75460  0.05580  Biso   1.000  C
  H100     1.0000 0.58350  0.76230  0.12000  Biso   1.000  H
  H101     1.0000 0.62330  0.74770  0.03440  Biso   1.000  H
  C33      1.0000 0.53900  0.71210  0.03390  Biso   1.000  C
  H102     1.0000 0.55780  0.69030  0.98930  Biso   1.000  H
  H103     1.0000 0.53290  0.69230  0.08830  Biso   1.000  H
  H104     1.0000 0.49690  0.61440  0.05340  Biso   1.000  H
  H105     1.0000 0.52180  0.53500  0.94720  Biso   1.000  H
  H106     1.0000 0.42690  0.50620  0.94190  Biso   1.000  H
  H107     1.0000 0.43250  0.49510  0.04640  Biso   1.000  H
  C34      1.0000 0.39260  0.56400  0.02040  Biso   1.000  C
  H108     1.0000 0.35590  0.55910  0.98540  Biso   1.000  H
  H109     1.0000 0.38160  0.56290  0.08400  Biso   1.000  H
  H110     1.0000 0.40980  0.55510  0.04350  Biso   1.000  H
  H111     1.0000 0.42040  0.56780  0.94110  Biso   1.000  H
  H112     1.0000 0.44820  0.60240  0.01640  Biso   1.000  H
  Cs3      1.0000 0.37881  0.69693  0.14133  Biso   1.000  Cs
  Cu3      1.0000 0.34548  0.69186  0.39776  Biso   1.000  Cu
  Si11     1.0000 0.45148  0.81625  0.29971  Biso   1.000  Si
  Si12     1.0000 0.50233  0.71610  0.32134  Biso   1.000  Si
  Si13     1.0000 0.49549  0.60527  0.30311  Biso   1.000  Si
  Si14     1.0000 0.36309  0.58218  0.30903  Biso   1.000  Si
  Si15     1.0000 0.31729  0.79960  0.30872  Biso   1.000  Si
  O31      1.0000 0.46040  0.81843  0.40640  Biso   1.000  O
  O32      1.0000 0.50860  0.49550  0.41500  Biso   1.000  O
  O33      1.0000 0.47410  0.49820  0.41720  Biso   1.000  O
  O34      1.0000 0.46310  0.71200  0.41350  Biso   1.000  O
  O35      1.0000 0.36300  0.55834  0.41160  Biso   1.000  O
  O36      1.0000 0.50110  0.60794  0.41260  Biso   1.000  O
  O37      1.0000 0.31840  0.73984  0.30990  Biso   1.000  O
  O38      1.0000 0.33900  0.63853  0.31010  Biso   1.000  O
  O39      1.0000 0.38060  0.82329  0.27020  Biso   1.000  O
  O40      1.0000 0.47410  0.76118  0.25900  Biso   1.000  O
  O41      1.0000 0.49500  0.66368  0.26560  Biso   1.000  O
  O42      1.0000 0.43270  0.57920  0.27150  Biso   1.000  O
  O43      1.0000 0.30670  0.82175  0.58880  Biso   1.000  O
  C35      1.0000 0.58300  0.72740  0.34420  Biso   1.000  C
  H113     1.0000 0.60460  0.72960  0.28790  Biso   1.000  H
  H114     1.0000 0.59900  0.70020  0.37950  Biso   1.000  H
  H115     1.0000 0.58750  0.75840  0.37700  Biso   1.000  H
  C36      1.0000 0.55900  0.57110  0.24960  Biso   1.000  C
  H116     1.0000 0.59660  0.58610  0.26770  Biso   1.000  H
  H117     1.0000 0.55510  0.57290  0.18490  Biso   1.000  H
  H118     1.0000 0.55820  0.53650  0.26840  Biso   1.000  H
  C37      1.0000 0.31670  0.54120  0.23460  Biso   1.000  C
  H119     1.0000 0.33260  0.50750  0.23570  Biso   1.000  H
  H120     1.0000 0.31790  0.55390  0.17370  Biso   1.000  H
  H121     1.0000 0.27560  0.54090  0.25570  Biso   1.000  H
  H122     1.0000 0.23900  0.60440  0.44690  Biso   1.000  H
  H123     1.0000 0.21000  0.74160  0.55310  Biso   1.000  H
  C38      1.0000 0.25420  0.82510  0.23570  Biso   1.000  C
  H124     1.0000 0.25510  0.86120  0.23680  Biso   1.000  H
  H125     1.0000 0.21600  0.81350  0.25860  Biso   1.000  H
  H126     1.0000 0.25940  0.81350  0.17460  Biso   1.000  H
  C39      1.0000 0.49470  0.86550  0.24080  Biso   1.000  C
  H127     1.0000 0.48800  0.86280  0.17680  Biso   1.000  H
  H128     1.0000 0.53700  0.86140  0.25350  Biso   1.000  H
  H129     1.0000 0.48160  0.89800  0.26140  Biso   1.000  H
  O44      1.0000 0.36510  0.96810  0.68030  Biso   1.000  O
  C40      1.0000 0.33380  0.95580  0.76170  Biso   1.000  C
  H130     1.0000 0.29030  0.95820  0.75480  Biso   1.000  H
  H131     1.0000 0.34460  0.92270  0.78430  Biso   1.000  H
  C41      1.0000 0.35900  0.99770  0.82020  Biso   1.000  C
  H132     1.0000 0.33150  0.00650  0.86880  Biso   1.000  H
  H133     1.0000 0.39810  0.98880  0.84550  Biso   1.000  H
  C42      1.0000 0.36440  0.03980  0.75100  Biso   1.000  C
  H134     1.0000 0.39820  0.06140  0.76740  Biso   1.000  H
  H135     1.0000 0.32790  0.06000  0.75260  Biso   1.000  H
  C43      1.0000 0.37390  0.01970  0.65660  Biso   1.000  C
  H136     1.0000 0.41430  0.02630  0.63370  Biso   1.000  H
  H137     1.0000 0.34380  0.03180  0.61410  Biso   1.000  H
  O45      1.0000 0.39730  0.96460  0.69110  Biso   1.000  O
  C44      1.0000 0.35950  0.94930  0.76430  Biso   1.000  C
  H138     1.0000 0.31690  0.95150  0.74940  Biso   1.000  H
  H139     1.0000 0.36910  0.91550  0.78510  Biso   1.000  H
  C45      1.0000 0.37870  0.98920  0.83160  Biso   1.000  C
  H140     1.0000 0.34700  0.99600  0.87550  Biso   1.000  H
  H141     1.0000 0.41550  0.97970  0.86320  Biso   1.000  H
  C46      1.0000 0.38890  0.03370  0.76900  Biso   1.000  C
  H142     1.0000 0.42050  0.05490  0.79390  Biso   1.000  H
  H143     1.0000 0.35210  0.05350  0.76560  Biso   1.000  H
  C47      1.0000 0.40680  0.01710  0.67500  Biso   1.000  C
  H144     1.0000 0.44870  0.02490  0.66080  Biso   1.000  H
  H145     1.0000 0.38030  0.03050  0.62850  Biso   1.000  H
  H146     1.0000 0.31530  0.81160  0.96790  Biso   1.000  H
  H147     1.0000 0.33710  0.83120  0.06240  Biso   1.000  H
  C48      1.0000 0.36610  0.87550  0.95820  Biso   1.000  C
  H148     1.0000 0.36630  0.87500  0.89250  Biso   1.000  H
  H149     1.0000 0.34200  0.90340  0.98060  Biso   1.000  H
  H150     1.0000 0.45660  0.89360  0.96540  Biso   1.000  H
  H151     1.0000 0.42760  0.88530  0.06140  Biso   1.000  H
  H152     1.0000 0.47530  0.81150  0.05290  Biso   1.000  H
  H153     1.0000 0.46540  0.79380  0.94630  Biso   1.000  H
  H154     1.0000 0.56780  0.79710  0.06000  Biso   1.000  H
  H155     1.0000 0.55710  0.82840  0.97050  Biso   1.000  H
  C49      1.0000 0.58260  0.75460  0.94420  Biso   1.000  C
  H156     1.0000 0.58350  0.76230  0.88000  Biso   1.000  H
  H157     1.0000 0.62330  0.74770  0.96560  Biso   1.000  H
  C50      1.0000 0.53900  0.71210  0.96610  Biso   1.000  C
  H158     1.0000 0.55780  0.69030  0.01070  Biso   1.000  H
  H159     1.0000 0.53290  0.69230  0.91170  Biso   1.000  H
  H160     1.0000 0.49690  0.61440  0.94660  Biso   1.000  H
  H161     1.0000 0.52180  0.53500  0.05280  Biso   1.000  H
  H162     1.0000 0.42690  0.50620  0.05810  Biso   1.000  H
  H163     1.0000 0.43250  0.49510  0.95360  Biso   1.000  H
  C51      1.0000 0.39260  0.56400  0.97960  Biso   1.000  C
  H164     1.0000 0.35590  0.55910  0.01460  Biso   1.000  H
  H165     1.0000 0.38160  0.56290  0.91600  Biso   1.000  H
  H166     1.0000 0.40980  0.55510  0.95650  Biso   1.000  H
  H167     1.0000 0.42040  0.56780  0.05890  Biso   1.000  H
  H168     1.0000 0.44820  0.60240  0.98360  Biso   1.000  H
  Cs4      1.0000 0.62119  0.30307  0.14133  Biso   1.000  Cs
  Cu4      1.0000 0.65452  0.30814  0.39776  Biso   1.000  Cu
  Si16     1.0000 0.54852  0.18375  0.29971  Biso   1.000  Si
  Si17     1.0000 0.49767  0.28390  0.32134  Biso   1.000  Si
  Si18     1.0000 0.50451  0.39473  0.30311  Biso   1.000  Si
  Si19     1.0000 0.63691  0.41782  0.30903  Biso   1.000  Si
  Si20     1.0000 0.68271  0.20040  0.30872  Biso   1.000  Si
  O46      1.0000 0.53960  0.18157  0.40640  Biso   1.000  O
  O47      1.0000 0.49140  0.50450  0.41500  Biso   1.000  O
  O48      1.0000 0.52590  0.50180  0.41720  Biso   1.000  O
  O49      1.0000 0.53690  0.28800  0.41350  Biso   1.000  O
  O50      1.0000 0.63700  0.44166  0.41160  Biso   1.000  O
  O51      1.0000 0.49890  0.39206  0.41260  Biso   1.000  O
  O52      1.0000 0.68160  0.26016  0.30990  Biso   1.000  O
  O53      1.0000 0.66100  0.36147  0.31010  Biso   1.000  O
  O54      1.0000 0.61940  0.17671  0.27020  Biso   1.000  O
  O55      1.0000 0.52590  0.23882  0.25900  Biso   1.000  O
  O56      1.0000 0.50500  0.33632  0.26560  Biso   1.000  O
  O57      1.0000 0.56730  0.42080  0.27150  Biso   1.000  O
  O58      1.0000 0.69330  0.17825  0.58880  Biso   1.000  O
  C52      1.0000 0.41700  0.27260  0.34420  Biso   1.000  C
  H169     1.0000 0.39540  0.27040  0.28790  Biso   1.000  H
  H170     1.0000 0.40100  0.29980  0.37950  Biso   1.000  H
  H171     1.0000 0.41250  0.24160  0.37700  Biso   1.000  H
  C53      1.0000 0.44100  0.42890  0.24960  Biso   1.000  C
  H172     1.0000 0.40340  0.41390  0.26770  Biso   1.000  H
  H173     1.0000 0.44490  0.42710  0.18490  Biso   1.000  H
  H174     1.0000 0.44180  0.46350  0.26840  Biso   1.000  H
  C54      1.0000 0.68330  0.45880  0.23460  Biso   1.000  C
  H175     1.0000 0.66740  0.49250  0.23570  Biso   1.000  H
  H176     1.0000 0.68210  0.44610  0.17370  Biso   1.000  H
  H177     1.0000 0.72440  0.45910  0.25570  Biso   1.000  H
  H178     1.0000 0.76100  0.39560  0.44690  Biso   1.000  H
  H179     1.0000 0.79000  0.25840  0.55310  Biso   1.000  H
  C55      1.0000 0.74580  0.17490  0.23570  Biso   1.000  C
  H180     1.0000 0.74490  0.13880  0.23680  Biso   1.000  H
  H181     1.0000 0.78400  0.18650  0.25860  Biso   1.000  H
  H182     1.0000 0.74060  0.18650  0.17460  Biso   1.000  H
  C56      1.0000 0.50530  0.13450  0.24080  Biso   1.000  C
  H183     1.0000 0.51200  0.13720  0.17680  Biso   1.000  H
  H184     1.0000 0.46300  0.13860  0.25350  Biso   1.000  H
  H185     1.0000 0.51840  0.10200  0.26140  Biso   1.000  H
  O59      1.0000 0.63490  0.03190  0.68030  Biso   1.000  O
  C57      1.0000 0.66620  0.04420  0.76170  Biso   1.000  C
  H186     1.0000 0.70970  0.04180  0.75480  Biso   1.000  H
  H187     1.0000 0.65540  0.07730  0.78430  Biso   1.000  H
  C58      1.0000 0.64100  0.00230  0.82020  Biso   1.000  C
  H188     1.0000 0.66850  0.99350  0.86880  Biso   1.000  H
  H189     1.0000 0.60190  0.01120  0.84550  Biso   1.000  H
  C59      1.0000 0.63560  0.96020  0.75100  Biso   1.000  C
  H190     1.0000 0.60180  0.93860  0.76740  Biso   1.000  H
  H191     1.0000 0.67210  0.94000  0.75260  Biso   1.000  H
  C60      1.0000 0.62610  0.98030  0.65660  Biso   1.000  C
  H192     1.0000 0.58570  0.97370  0.63370  Biso   1.000  H
  H193     1.0000 0.65620  0.96820  0.61410  Biso   1.000  H
  O60      1.0000 0.60270  0.03540  0.69110  Biso   1.000  O
  C61      1.0000 0.64050  0.05070  0.76430  Biso   1.000  C
  H194     1.0000 0.68310  0.04850  0.74940  Biso   1.000  H
  H195     1.0000 0.63090  0.08450  0.78510  Biso   1.000  H
  C62      1.0000 0.62130  0.01080  0.83160  Biso   1.000  C
  H196     1.0000 0.65300  0.00400  0.87550  Biso   1.000  H
  H197     1.0000 0.58450  0.02030  0.86320  Biso   1.000  H
  C63      1.0000 0.61110  0.96630  0.76900  Biso   1.000  C
  H198     1.0000 0.57950  0.94510  0.79390  Biso   1.000  H
  H199     1.0000 0.64790  0.94650  0.76560  Biso   1.000  H
  C64      1.0000 0.59320  0.98290  0.67500  Biso   1.000  C
  H200     1.0000 0.55130  0.97510  0.66080  Biso   1.000  H
  H201     1.0000 0.61970  0.96950  0.62850  Biso   1.000  H
  H202     1.0000 0.68470  0.18840  0.96790  Biso   1.000  H
  H203     1.0000 0.66290  0.16880  0.06240  Biso   1.000  H
  C65      1.0000 0.63390  0.12450  0.95820  Biso   1.000  C
  H204     1.0000 0.63370  0.12500  0.89250  Biso   1.000  H
  H205     1.0000 0.65800  0.09660  0.98060  Biso   1.000  H
  H206     1.0000 0.54340  0.10640  0.96540  Biso   1.000  H
  H207     1.0000 0.57240  0.11470  0.06140  Biso   1.000  H
  H208     1.0000 0.52470  0.18850  0.05290  Biso   1.000  H
  H209     1.0000 0.53460  0.20620  0.94630  Biso   1.000  H
  H210     1.0000 0.43220  0.20290  0.06000  Biso   1.000  H
  H211     1.0000 0.44290  0.17160  0.97050  Biso   1.000  H
  C66      1.0000 0.41740  0.24540  0.94420  Biso   1.000  C
  H212     1.0000 0.41650  0.23770  0.88000  Biso   1.000  H
  H213     1.0000 0.37670  0.25230  0.96560  Biso   1.000  H
  C67      1.0000 0.46100  0.28790  0.96610  Biso   1.000  C
  H214     1.0000 0.44220  0.30970  0.01070  Biso   1.000  H
  H215     1.0000 0.46710  0.30770  0.91170  Biso   1.000  H
  H216     1.0000 0.50310  0.38560  0.94660  Biso   1.000  H
  H217     1.0000 0.47820  0.46500  0.05280  Biso   1.000  H
  H218     1.0000 0.57310  0.49380  0.05810  Biso   1.000  H
  H219     1.0000 0.56750  0.50490  0.95360  Biso   1.000  H
  C68      1.0000 0.60740  0.43600  0.97960  Biso   1.000  C
  H220     1.0000 0.64410  0.44090  0.01460  Biso   1.000  H
  H221     1.0000 0.61840  0.43710  0.91600  Biso   1.000  H
  H222     1.0000 0.59020  0.44490  0.95650  Biso   1.000  H
  H223     1.0000 0.57960  0.43220  0.05890  Biso   1.000  H
  H224     1.0000 0.55180  0.39760  0.98360  Biso   1.000  H
  Cs5      1.0000 0.60619  0.09215  0.50000  Biso   1.000  Cs
  Cu5      1.0000 0.54488  0.23089  0.50000  Biso   1.000  Cu
  Cu6      1.0000 0.52392  0.34151  0.50000  Biso   1.000  Cu
  Cu7      1.0000 0.49755  0.44633  0.50000  Biso   1.000  Cu
  Si21     1.0000 0.66283  0.41181  0.50000  Biso   1.000  Si
  Si22     1.0000 0.70502  0.21378  0.50000  Biso   1.000  Si
  O61      1.0000 0.65670  0.26040  0.50000  Biso   1.000  O
  O62      1.0000 0.63650  0.35460  0.50000  Biso   1.000  O
  C69      1.0000 0.74630  0.41250  0.50000  Biso   1.000  C
  H225     1.0000 0.76040  0.44670  0.50000  Biso   1.000  H
  C70      1.0000 0.78360  0.23820  0.50000  Biso   1.000  C
  H226     1.0000 0.81150  0.21050  0.50000  Biso   1.000  H
  O63      1.0000 0.47640  0.01110  0.50000  Biso   1.000  O
  Cs6      1.0000 0.39381  0.90785  0.50000  Biso   1.000  Cs
  Cu8      1.0000 0.45512  0.76911  0.50000  Biso   1.000  Cu
  Cu9      1.0000 0.47608  0.65849  0.50000  Biso   1.000  Cu
  Cu10     1.0000 0.50245  0.55367  0.50000  Biso   1.000  Cu
  Si23     1.0000 0.33717  0.58819  0.50000  Biso   1.000  Si
  Si24     1.0000 0.29498  0.78622  0.50000  Biso   1.000  Si
  O64      1.0000 0.34330  0.73960  0.50000  Biso   1.000  O
  O65      1.0000 0.36350  0.64540  0.50000  Biso   1.000  O
  C71      1.0000 0.25370  0.58750  0.50000  Biso   1.000  C
  H227     1.0000 0.23960  0.55330  0.50000  Biso   1.000  H
  C72      1.0000 0.21640  0.76180  0.50000  Biso   1.000  C
  H228     1.0000 0.18850  0.78950  0.50000  Biso   1.000  H
  O66      1.0000 0.52360  0.98890  0.50000  Biso   1.000  O
  O67      1.0000 0.60290  0.21060  0.00000  Biso   1.000  O
  C73      1.0000 0.65030  0.17460  0.00000  Biso   1.000  C
  C74      1.0000 0.57110  0.12720  0.00000  Biso   1.000  C
  C75      1.0000 0.54900  0.18150  0.00000  Biso   1.000  C
  O68      1.0000 0.51840  0.27300  0.00000  Biso   1.000  O
  C76      1.0000 0.51450  0.21970  0.00000  Biso   1.000  C
  C77      1.0000 0.44820  0.20430  0.00000  Biso   1.000  C
  O69      1.0000 0.58330  0.38780  0.00000  Biso   1.000  O
  C78      1.0000 0.52120  0.40140  0.00000  Biso   1.000  C
  C79      1.0000 0.50120  0.45620  0.00000  Biso   1.000  C
  C80      1.0000 0.56420  0.47900  0.00000  Biso   1.000  C
  O70      1.0000 0.67290  0.22240  0.00000  Biso   1.000  O
  O71      1.0000 0.63580  0.39010  0.00000  Biso   1.000  O
  C81      1.0000 0.58590  0.41810  0.00000  Biso   1.000  C
  O72      1.0000 0.39710  0.78940  0.00000  Biso   1.000  O
  C82      1.0000 0.34970  0.82540  0.00000  Biso   1.000  C
  C83      1.0000 0.42890  0.87280  0.00000  Biso   1.000  C
  C84      1.0000 0.45100  0.81850  0.00000  Biso   1.000  C
  O73      1.0000 0.48160  0.72700  0.00000  Biso   1.000  O
  C85      1.0000 0.48550  0.78030  0.00000  Biso   1.000  C
  C86      1.0000 0.55180  0.79570  0.00000  Biso   1.000  C
  O74      1.0000 0.41670  0.61220  0.00000  Biso   1.000  O
  C87      1.0000 0.47880  0.59860  0.00000  Biso   1.000  C
  C88      1.0000 0.49880  0.54380  0.00000  Biso   1.000  C
  C89      1.0000 0.43580  0.52100  0.00000  Biso   1.000  C
  O75      1.0000 0.32710  0.77760  0.00000  Biso   1.000  O
  O76      1.0000 0.36420  0.60990  0.00000  Biso   1.000  O
  C90      1.0000 0.41410  0.58190  0.00000  Biso   1.000  C
  Cs7      1.0000 0.87881  0.80307  0.14133  Biso   1.000  Cs
  Cu11     1.0000 0.84548  0.80814  0.39776  Biso   1.000  Cu
  Si25     1.0000 0.95148  0.68375  0.29971  Biso   1.000  Si
  Si26     1.0000 0.00233  0.78390  0.32134  Biso   1.000  Si
  Si27     1.0000 0.99549  0.89473  0.30311  Biso   1.000  Si
  Si28     1.0000 0.86309  0.91782  0.30903  Biso   1.000  Si
  Si29     1.0000 0.81729  0.70040  0.30872  Biso   1.000  Si
  O77      1.0000 0.96040  0.68157  0.40640  Biso   1.000  O
  O78      1.0000 0.00860  0.00450  0.41500  Biso   1.000  O
  O79      1.0000 0.97410  0.00180  0.41720  Biso   1.000  O
  O80      1.0000 0.96310  0.78800  0.41350  Biso   1.000  O
  O81      1.0000 0.86300  0.94166  0.41160  Biso   1.000  O
  O82      1.0000 0.00110  0.89206  0.41260  Biso   1.000  O
  O83      1.0000 0.81840  0.76016  0.30990  Biso   1.000  O
  O84      1.0000 0.83900  0.86147  0.31010  Biso   1.000  O
  O85      1.0000 0.88060  0.67671  0.27020  Biso   1.000  O
  O86      1.0000 0.97410  0.73882  0.25900  Biso   1.000  O
  O87      1.0000 0.99500  0.83632  0.26560  Biso   1.000  O
  O88      1.0000 0.93270  0.92080  0.27150  Biso   1.000  O
  O89      1.0000 0.80670  0.67825  0.58880  Biso   1.000  O
  C91      1.0000 0.08300  0.77260  0.34420  Biso   1.000  C
  H229     1.0000 0.10460  0.77040  0.28790  Biso   1.000  H
  H230     1.0000 0.09900  0.79980  0.37950  Biso   1.000  H
  H231     1.0000 0.08750  0.74160  0.37700  Biso   1.000  H
  C92      1.0000 0.05900  0.92890  0.24960  Biso   1.000  C
  H232     1.0000 0.09660  0.91390  0.26770  Biso   1.000  H
  H233     1.0000 0.05510  0.92710  0.18490  Biso   1.000  H
  H234     1.0000 0.05820  0.96350  0.26840  Biso   1.000  H
  C93      1.0000 0.81670  0.95880  0.23460  Biso   1.000  C
  H235     1.0000 0.83260  0.99250  0.23570  Biso   1.000  H
  H236     1.0000 0.81790  0.94610  0.17370  Biso   1.000  H
  H237     1.0000 0.77560  0.95910  0.25570  Biso   1.000  H
  H238     1.0000 0.73900  0.89560  0.44690  Biso   1.000  H
  H239     1.0000 0.71000  0.75840  0.55310  Biso   1.000  H
  C94      1.0000 0.75420  0.67490  0.23570  Biso   1.000  C
  H240     1.0000 0.75510  0.63880  0.23680  Biso   1.000  H
  H241     1.0000 0.71600  0.68650  0.25860  Biso   1.000  H
  H242     1.0000 0.75940  0.68650  0.17460  Biso   1.000  H
  C95      1.0000 0.99470  0.63450  0.24080  Biso   1.000  C
  H243     1.0000 0.98800  0.63720  0.17680  Biso   1.000  H
  H244     1.0000 0.03700  0.63860  0.25350  Biso   1.000  H
  H245     1.0000 0.98160  0.60200  0.26140  Biso   1.000  H
  O90      1.0000 0.86510  0.53190  0.68030  Biso   1.000  O
  C96      1.0000 0.83380  0.54420  0.76170  Biso   1.000  C
  H246     1.0000 0.79030  0.54180  0.75480  Biso   1.000  H
  H247     1.0000 0.84460  0.57730  0.78430  Biso   1.000  H
  C97      1.0000 0.85900  0.50230  0.82020  Biso   1.000  C
  H248     1.0000 0.83150  0.49350  0.86880  Biso   1.000  H
  H249     1.0000 0.89810  0.51120  0.84550  Biso   1.000  H
  C98      1.0000 0.86440  0.46020  0.75100  Biso   1.000  C
  H250     1.0000 0.89820  0.43860  0.76740  Biso   1.000  H
  H251     1.0000 0.82790  0.44000  0.75260  Biso   1.000  H
  C99      1.0000 0.87390  0.48030  0.65660  Biso   1.000  C
  H252     1.0000 0.91430  0.47370  0.63370  Biso   1.000  H
  H253     1.0000 0.84380  0.46820  0.61410  Biso   1.000  H
  O91      1.0000 0.89730  0.53540  0.69110  Biso   1.000  O
  C100     1.0000 0.85950  0.55070  0.76430  Biso   1.000  C
  H254     1.0000 0.81690  0.54850  0.74940  Biso   1.000  H
  H255     1.0000 0.86910  0.58450  0.78510  Biso   1.000  H
  C101     1.0000 0.87870  0.51080  0.83160  Biso   1.000  C
  H256     1.0000 0.84700  0.50400  0.87550  Biso   1.000  H
  H257     1.0000 0.91550  0.52030  0.86320  Biso   1.000  H
  C102     1.0000 0.88890  0.46630  0.76900  Biso   1.000  C
  H258     1.0000 0.92050  0.44510  0.79390  Biso   1.000  H
  H259     1.0000 0.85210  0.44650  0.76560  Biso   1.000  H
  C103     1.0000 0.90680  0.48290  0.67500  Biso   1.000  C
  H260     1.0000 0.94870  0.47510  0.66080  Biso   1.000  H
  H261     1.0000 0.88030  0.46950  0.62850  Biso   1.000  H
  H262     1.0000 0.81530  0.68840  0.96790  Biso   1.000  H
  H263     1.0000 0.83710  0.66880  0.06240  Biso   1.000  H
  C104     1.0000 0.86610  0.62450  0.95820  Biso   1.000  C
  H264     1.0000 0.86630  0.62500  0.89250  Biso   1.000  H
  H265     1.0000 0.84200  0.59660  0.98060  Biso   1.000  H
  H266     1.0000 0.95660  0.60640  0.96540  Biso   1.000  H
  H267     1.0000 0.92760  0.61470  0.06140  Biso   1.000  H
  H268     1.0000 0.97530  0.68850  0.05290  Biso   1.000  H
  H269     1.0000 0.96540  0.70620  0.94630  Biso   1.000  H
  H270     1.0000 0.06780  0.70290  0.06000  Biso   1.000  H
  H271     1.0000 0.05710  0.67160  0.97050  Biso   1.000  H
  C105     1.0000 0.08260  0.74540  0.94420  Biso   1.000  C
  H272     1.0000 0.08350  0.73770  0.88000  Biso   1.000  H
  H273     1.0000 0.12330  0.75230  0.96560  Biso   1.000  H
  C106     1.0000 0.03900  0.78790  0.96610  Biso   1.000  C
  H274     1.0000 0.05780  0.80970  0.01070  Biso   1.000  H
  H275     1.0000 0.03290  0.80770  0.91170  Biso   1.000  H
  H276     1.0000 0.99690  0.88560  0.94660  Biso   1.000  H
  H277     1.0000 0.02180  0.96500  0.05280  Biso   1.000  H
  H278     1.0000 0.92690  0.99380  0.05810  Biso   1.000  H
  H279     1.0000 0.93250  0.00490  0.95360  Biso   1.000  H
  C107     1.0000 0.89260  0.93600  0.97960  Biso   1.000  C
  H280     1.0000 0.85590  0.94090  0.01460  Biso   1.000  H
  H281     1.0000 0.88160  0.93710  0.91600  Biso   1.000  H
  H282     1.0000 0.90980  0.94490  0.95650  Biso   1.000  H
  H283     1.0000 0.92040  0.93220  0.05890  Biso   1.000  H
  H284     1.0000 0.94820  0.89760  0.98360  Biso   1.000  H
  Cs8      1.0000 0.12119  0.19693  0.14133  Biso   1.000  Cs
  Cu12     1.0000 0.15452  0.19186  0.39776  Biso   1.000  Cu
  Si30     1.0000 0.04852  0.31625  0.29971  Biso   1.000  Si
  Si31     1.0000 0.99767  0.21610  0.32134  Biso   1.000  Si
  Si32     1.0000 0.00451  0.10527  0.30311  Biso   1.000  Si
  Si33     1.0000 0.13691  0.08218  0.30903  Biso   1.000  Si
  Si34     1.0000 0.18271  0.29960  0.30872  Biso   1.000  Si
  O92      1.0000 0.03960  0.31843  0.40640  Biso   1.000  O
  O93      1.0000 0.99140  0.99550  0.41500  Biso   1.000  O
  O94      1.0000 0.02590  0.99820  0.41720  Biso   1.000  O
  O95      1.0000 0.03690  0.21200  0.41350  Biso   1.000  O
  O96      1.0000 0.13700  0.05834  0.41160  Biso   1.000  O
  O97      1.0000 0.99890  0.10794  0.41260  Biso   1.000  O
  O98      1.0000 0.18160  0.23984  0.30990  Biso   1.000  O
  O99      1.0000 0.16100  0.13853  0.31010  Biso   1.000  O
  O100     1.0000 0.11940  0.32329  0.27020  Biso   1.000  O
  O101     1.0000 0.02590  0.26118  0.25900  Biso   1.000  O
  O102     1.0000 0.00500  0.16368  0.26560  Biso   1.000  O
  O103     1.0000 0.06730  0.07920  0.27150  Biso   1.000  O
  O104     1.0000 0.19330  0.32175  0.58880  Biso   1.000  O
  C108     1.0000 0.91700  0.22740  0.34420  Biso   1.000  C
  H285     1.0000 0.89540  0.22960  0.28790  Biso   1.000  H
  H286     1.0000 0.90100  0.20020  0.37950  Biso   1.000  H
  H287     1.0000 0.91250  0.25840  0.37700  Biso   1.000  H
  C109     1.0000 0.94100  0.07110  0.24960  Biso   1.000  C
  H288     1.0000 0.90340  0.08610  0.26770  Biso   1.000  H
  H289     1.0000 0.94490  0.07290  0.18490  Biso   1.000  H
  H290     1.0000 0.94180  0.03650  0.26840  Biso   1.000  H
  C110     1.0000 0.18330  0.04120  0.23460  Biso   1.000  C
  H291     1.0000 0.16740  0.00750  0.23570  Biso   1.000  H
  H292     1.0000 0.18210  0.05390  0.17370  Biso   1.000  H
  H293     1.0000 0.22440  0.04090  0.25570  Biso   1.000  H
  H294     1.0000 0.26100  0.10440  0.44690  Biso   1.000  H
  H295     1.0000 0.29000  0.24160  0.55310  Biso   1.000  H
  C111     1.0000 0.24580  0.32510  0.23570  Biso   1.000  C
  H296     1.0000 0.24490  0.36120  0.23680  Biso   1.000  H
  H297     1.0000 0.28400  0.31350  0.25860  Biso   1.000  H
  H298     1.0000 0.24060  0.31350  0.17460  Biso   1.000  H
  C112     1.0000 0.00530  0.36550  0.24080  Biso   1.000  C
  H299     1.0000 0.01200  0.36280  0.17680  Biso   1.000  H
  H300     1.0000 0.96300  0.36140  0.25350  Biso   1.000  H
  H301     1.0000 0.01840  0.39800  0.26140  Biso   1.000  H
  O105     1.0000 0.13490  0.46810  0.68030  Biso   1.000  O
  C113     1.0000 0.16620  0.45580  0.76170  Biso   1.000  C
  H302     1.0000 0.20970  0.45820  0.75480  Biso   1.000  H
  H303     1.0000 0.15540  0.42270  0.78430  Biso   1.000  H
  C114     1.0000 0.14100  0.49770  0.82020  Biso   1.000  C
  H304     1.0000 0.16850  0.50650  0.86880  Biso   1.000  H
  H305     1.0000 0.10190  0.48880  0.84550  Biso   1.000  H
  C115     1.0000 0.13560  0.53980  0.75100  Biso   1.000  C
  H306     1.0000 0.10180  0.56140  0.76740  Biso   1.000  H
  H307     1.0000 0.17210  0.56000  0.75260  Biso   1.000  H
  C116     1.0000 0.12610  0.51970  0.65660  Biso   1.000  C
  H308     1.0000 0.08570  0.52630  0.63370  Biso   1.000  H
  H309     1.0000 0.15620  0.53180  0.61410  Biso   1.000  H
  O106     1.0000 0.10270  0.46460  0.69110  Biso   1.000  O
  C117     1.0000 0.14050  0.44930  0.76430  Biso   1.000  C
  H310     1.0000 0.18310  0.45150  0.74940  Biso   1.000  H
  H311     1.0000 0.13090  0.41550  0.78510  Biso   1.000  H
  C118     1.0000 0.12130  0.48920  0.83160  Biso   1.000  C
  H312     1.0000 0.15300  0.49600  0.87550  Biso   1.000  H
  H313     1.0000 0.08450  0.47970  0.86320  Biso   1.000  H
  C119     1.0000 0.11110  0.53370  0.76900  Biso   1.000  C
  H314     1.0000 0.07950  0.55490  0.79390  Biso   1.000  H
  H315     1.0000 0.14790  0.55350  0.76560  Biso   1.000  H
  C120     1.0000 0.09320  0.51710  0.67500  Biso   1.000  C
  H316     1.0000 0.05130  0.52490  0.66080  Biso   1.000  H
  H317     1.0000 0.11970  0.53050  0.62850  Biso   1.000  H
  H318     1.0000 0.18470  0.31160  0.96790  Biso   1.000  H
  H319     1.0000 0.16290  0.33120  0.06240  Biso   1.000  H
  C121     1.0000 0.13390  0.37550  0.95820  Biso   1.000  C
  H320     1.0000 0.13370  0.37500  0.89250  Biso   1.000  H
  H321     1.0000 0.15800  0.40340  0.98060  Biso   1.000  H
  H322     1.0000 0.04340  0.39360  0.96540  Biso   1.000  H
  H323     1.0000 0.07240  0.38530  0.06140  Biso   1.000  H
  H324     1.0000 0.02470  0.31150  0.05290  Biso   1.000  H
  H325     1.0000 0.03460  0.29380  0.94630  Biso   1.000  H
  H326     1.0000 0.93220  0.29710  0.06000  Biso   1.000  H
  H327     1.0000 0.94290  0.32840  0.97050  Biso   1.000  H
  C122     1.0000 0.91740  0.25460  0.94420  Biso   1.000  C
  H328     1.0000 0.91650  0.26230  0.88000  Biso   1.000  H
  H329     1.0000 0.87670  0.24770  0.96560  Biso   1.000  H
  C123     1.0000 0.96100  0.21210  0.96610  Biso   1.000  C
  H330     1.0000 0.94220  0.19030  0.01070  Biso   1.000  H
  H331     1.0000 0.96710  0.19230  0.91170  Biso   1.000  H
  H332     1.0000 0.00310  0.11440  0.94660  Biso   1.000  H
  H333     1.0000 0.97820  0.03500  0.05280  Biso   1.000  H
  H334     1.0000 0.07310  0.00620  0.05810  Biso   1.000  H
  H335     1.0000 0.06750  0.99510  0.95360  Biso   1.000  H
  C124     1.0000 0.10740  0.06400  0.97960  Biso   1.000  C
  H336     1.0000 0.14410  0.05910  0.01460  Biso   1.000  H
  H337     1.0000 0.11840  0.06290  0.91600  Biso   1.000  H
  H338     1.0000 0.09020  0.05510  0.95650  Biso   1.000  H
  H339     1.0000 0.07960  0.06780  0.05890  Biso   1.000  H
  H340     1.0000 0.05180  0.10240  0.98360  Biso   1.000  H
  Cs9      1.0000 0.12119  0.19693  0.85867  Biso   1.000  Cs
  Cu13     1.0000 0.15452  0.19186  0.60224  Biso   1.000  Cu
  Si35     1.0000 0.04852  0.31625  0.70029  Biso   1.000  Si
  Si36     1.0000 0.99767  0.21610  0.67866  Biso   1.000  Si
  Si37     1.0000 0.00451  0.10527  0.69689  Biso   1.000  Si
  Si38     1.0000 0.13691  0.08218  0.69097  Biso   1.000  Si
  Si39     1.0000 0.18271  0.29960  0.69128  Biso   1.000  Si
  O107     1.0000 0.03960  0.31843  0.59360  Biso   1.000  O
  O108     1.0000 0.99140  0.99550  0.58500  Biso   1.000  O
  O109     1.0000 0.02590  0.99820  0.58280  Biso   1.000  O
  O110     1.0000 0.03690  0.21200  0.58650  Biso   1.000  O
  O111     1.0000 0.13700  0.05834  0.58840  Biso   1.000  O
  O112     1.0000 0.99890  0.10794  0.58740  Biso   1.000  O
  O113     1.0000 0.18160  0.23984  0.69010  Biso   1.000  O
  O114     1.0000 0.16100  0.13853  0.68990  Biso   1.000  O
  O115     1.0000 0.11940  0.32329  0.72980  Biso   1.000  O
  O116     1.0000 0.02590  0.26118  0.74100  Biso   1.000  O
  O117     1.0000 0.00500  0.16368  0.73440  Biso   1.000  O
  O118     1.0000 0.06730  0.07920  0.72850  Biso   1.000  O
  O119     1.0000 0.19330  0.32175  0.41120  Biso   1.000  O
  C125     1.0000 0.91700  0.22740  0.65580  Biso   1.000  C
  H341     1.0000 0.89540  0.22960  0.71210  Biso   1.000  H
  H342     1.0000 0.90100  0.20020  0.62050  Biso   1.000  H
  H343     1.0000 0.91250  0.25840  0.62300  Biso   1.000  H
  C126     1.0000 0.94100  0.07110  0.75040  Biso   1.000  C
  H344     1.0000 0.90340  0.08610  0.73230  Biso   1.000  H
  H345     1.0000 0.94490  0.07290  0.81510  Biso   1.000  H
  H346     1.0000 0.94180  0.03650  0.73160  Biso   1.000  H
  C127     1.0000 0.18330  0.04120  0.76540  Biso   1.000  C
  H347     1.0000 0.16740  0.00750  0.76430  Biso   1.000  H
  H348     1.0000 0.18210  0.05390  0.82630  Biso   1.000  H
  H349     1.0000 0.22440  0.04090  0.74430  Biso   1.000  H
  H350     1.0000 0.26100  0.10440  0.55310  Biso   1.000  H
  H351     1.0000 0.29000  0.24160  0.44690  Biso   1.000  H
  C128     1.0000 0.24580  0.32510  0.76430  Biso   1.000  C
  H352     1.0000 0.24490  0.36120  0.76320  Biso   1.000  H
  H353     1.0000 0.28400  0.31350  0.74140  Biso   1.000  H
  H354     1.0000 0.24060  0.31350  0.82540  Biso   1.000  H
  C129     1.0000 0.00530  0.36550  0.75920  Biso   1.000  C
  H355     1.0000 0.01200  0.36280  0.82320  Biso   1.000  H
  H356     1.0000 0.96300  0.36140  0.74650  Biso   1.000  H
  H357     1.0000 0.01840  0.39800  0.73860  Biso   1.000  H
  O120     1.0000 0.13490  0.46810  0.31970  Biso   1.000  O
  C130     1.0000 0.16620  0.45580  0.23830  Biso   1.000  C
  H358     1.0000 0.20970  0.45820  0.24520  Biso   1.000  H
  H359     1.0000 0.15540  0.42270  0.21570  Biso   1.000  H
  C131     1.0000 0.14100  0.49770  0.17980  Biso   1.000  C
  H360     1.0000 0.16850  0.50650  0.13120  Biso   1.000  H
  H361     1.0000 0.10190  0.48880  0.15450  Biso   1.000  H
  C132     1.0000 0.13560  0.53980  0.24900  Biso   1.000  C
  H362     1.0000 0.10180  0.56140  0.23260  Biso   1.000  H
  H363     1.0000 0.17210  0.56000  0.24740  Biso   1.000  H
  C133     1.0000 0.12610  0.51970  0.34340  Biso   1.000  C
  H364     1.0000 0.08570  0.52630  0.36630  Biso   1.000  H
  H365     1.0000 0.15620  0.53180  0.38590  Biso   1.000  H
  O121     1.0000 0.10270  0.46460  0.30890  Biso   1.000  O
  C134     1.0000 0.14050  0.44930  0.23570  Biso   1.000  C
  H366     1.0000 0.18310  0.45150  0.25060  Biso   1.000  H
  H367     1.0000 0.13090  0.41550  0.21490  Biso   1.000  H
  C135     1.0000 0.12130  0.48920  0.16840  Biso   1.000  C
  H368     1.0000 0.15300  0.49600  0.12450  Biso   1.000  H
  H369     1.0000 0.08450  0.47970  0.13680  Biso   1.000  H
  C136     1.0000 0.11110  0.53370  0.23100  Biso   1.000  C
  H370     1.0000 0.07950  0.55490  0.20610  Biso   1.000  H
  H371     1.0000 0.14790  0.55350  0.23440  Biso   1.000  H
  C137     1.0000 0.09320  0.51710  0.32500  Biso   1.000  C
  H372     1.0000 0.05130  0.52490  0.33920  Biso   1.000  H
  H373     1.0000 0.11970  0.53050  0.37150  Biso   1.000  H
  H374     1.0000 0.18470  0.31160  0.03210  Biso   1.000  H
  H375     1.0000 0.16290  0.33120  0.93760  Biso   1.000  H
  C138     1.0000 0.13390  0.37550  0.04180  Biso   1.000  C
  H376     1.0000 0.13370  0.37500  0.10750  Biso   1.000  H
  H377     1.0000 0.15800  0.40340  0.01940  Biso   1.000  H
  H378     1.0000 0.04340  0.39360  0.03460  Biso   1.000  H
  H379     1.0000 0.07240  0.38530  0.93860  Biso   1.000  H
  H380     1.0000 0.02470  0.31150  0.94710  Biso   1.000  H
  H381     1.0000 0.03460  0.29380  0.05370  Biso   1.000  H
  H382     1.0000 0.93220  0.29710  0.94000  Biso   1.000  H
  H383     1.0000 0.94290  0.32840  0.02950  Biso   1.000  H
  C139     1.0000 0.91740  0.25460  0.05580  Biso   1.000  C
  H384     1.0000 0.91650  0.26230  0.12000  Biso   1.000  H
  H385     1.0000 0.87670  0.24770  0.03440  Biso   1.000  H
  C140     1.0000 0.96100  0.21210  0.03390  Biso   1.000  C
  H386     1.0000 0.94220  0.19030  0.98930  Biso   1.000  H
  H387     1.0000 0.96710  0.19230  0.08830  Biso   1.000  H
  H388     1.0000 0.00310  0.11440  0.05340  Biso   1.000  H
  H389     1.0000 0.97820  0.03500  0.94720  Biso   1.000  H
  H390     1.0000 0.07310  0.00620  0.94190  Biso   1.000  H
  H391     1.0000 0.06750  0.99510  0.04640  Biso   1.000  H
  C141     1.0000 0.10740  0.06400  0.02040  Biso   1.000  C
  H392     1.0000 0.14410  0.05910  0.98540  Biso   1.000  H
  H393     1.0000 0.11840  0.06290  0.08400  Biso   1.000  H
  H394     1.0000 0.09020  0.05510  0.04350  Biso   1.000  H
  H395     1.0000 0.07960  0.06780  0.94110  Biso   1.000  H
  H396     1.0000 0.05180  0.10240  0.01640  Biso   1.000  H
  Cs10     1.0000 0.87881  0.80307  0.85867  Biso   1.000  Cs
  Cu14     1.0000 0.84548  0.80814  0.60224  Biso   1.000  Cu
  Si40     1.0000 0.95148  0.68375  0.70029  Biso   1.000  Si
  Si41     1.0000 0.00233  0.78390  0.67866  Biso   1.000  Si
  Si42     1.0000 0.99549  0.89473  0.69689  Biso   1.000  Si
  Si43     1.0000 0.86309  0.91782  0.69097  Biso   1.000  Si
  Si44     1.0000 0.81729  0.70040  0.69128  Biso   1.000  Si
  O122     1.0000 0.96040  0.68157  0.59360  Biso   1.000  O
  O123     1.0000 0.00860  0.00450  0.58500  Biso   1.000  O
  O124     1.0000 0.97410  0.00180  0.58280  Biso   1.000  O
  O125     1.0000 0.96310  0.78800  0.58650  Biso   1.000  O
  O126     1.0000 0.86300  0.94166  0.58840  Biso   1.000  O
  O127     1.0000 0.00110  0.89206  0.58740  Biso   1.000  O
  O128     1.0000 0.81840  0.76016  0.69010  Biso   1.000  O
  O129     1.0000 0.83900  0.86147  0.68990  Biso   1.000  O
  O130     1.0000 0.88060  0.67671  0.72980  Biso   1.000  O
  O131     1.0000 0.97410  0.73882  0.74100  Biso   1.000  O
  O132     1.0000 0.99500  0.83632  0.73440  Biso   1.000  O
  O133     1.0000 0.93270  0.92080  0.72850  Biso   1.000  O
  O134     1.0000 0.80670  0.67825  0.41120  Biso   1.000  O
  C142     1.0000 0.08300  0.77260  0.65580  Biso   1.000  C
  H397     1.0000 0.10460  0.77040  0.71210  Biso   1.000  H
  H398     1.0000 0.09900  0.79980  0.62050  Biso   1.000  H
  H399     1.0000 0.08750  0.74160  0.62300  Biso   1.000  H
  C143     1.0000 0.05900  0.92890  0.75040  Biso   1.000  C
  H400     1.0000 0.09660  0.91390  0.73230  Biso   1.000  H
  H401     1.0000 0.05510  0.92710  0.81510  Biso   1.000  H
  H402     1.0000 0.05820  0.96350  0.73160  Biso   1.000  H
  C144     1.0000 0.81670  0.95880  0.76540  Biso   1.000  C
  H403     1.0000 0.83260  0.99250  0.76430  Biso   1.000  H
  H404     1.0000 0.81790  0.94610  0.82630  Biso   1.000  H
  H405     1.0000 0.77560  0.95910  0.74430  Biso   1.000  H
  H406     1.0000 0.73900  0.89560  0.55310  Biso   1.000  H
  H407     1.0000 0.71000  0.75840  0.44690  Biso   1.000  H
  C145     1.0000 0.75420  0.67490  0.76430  Biso   1.000  C
  H408     1.0000 0.75510  0.63880  0.76320  Biso   1.000  H
  H409     1.0000 0.71600  0.68650  0.74140  Biso   1.000  H
  H410     1.0000 0.75940  0.68650  0.82540  Biso   1.000  H
  C146     1.0000 0.99470  0.63450  0.75920  Biso   1.000  C
  H411     1.0000 0.98800  0.63720  0.82320  Biso   1.000  H
  H412     1.0000 0.03700  0.63860  0.74650  Biso   1.000  H
  H413     1.0000 0.98160  0.60200  0.73860  Biso   1.000  H
  O135     1.0000 0.86510  0.53190  0.31970  Biso   1.000  O
  C147     1.0000 0.83380  0.54420  0.23830  Biso   1.000  C
  H414     1.0000 0.79030  0.54180  0.24520  Biso   1.000  H
  H415     1.0000 0.84460  0.57730  0.21570  Biso   1.000  H
  C148     1.0000 0.85900  0.50230  0.17980  Biso   1.000  C
  H416     1.0000 0.83150  0.49350  0.13120  Biso   1.000  H
  H417     1.0000 0.89810  0.51120  0.15450  Biso   1.000  H
  C149     1.0000 0.86440  0.46020  0.24900  Biso   1.000  C
  H418     1.0000 0.89820  0.43860  0.23260  Biso   1.000  H
  H419     1.0000 0.82790  0.44000  0.24740  Biso   1.000  H
  C150     1.0000 0.87390  0.48030  0.34340  Biso   1.000  C
  H420     1.0000 0.91430  0.47370  0.36630  Biso   1.000  H
  H421     1.0000 0.84380  0.46820  0.38590  Biso   1.000  H
  O136     1.0000 0.89730  0.53540  0.30890  Biso   1.000  O
  C151     1.0000 0.85950  0.55070  0.23570  Biso   1.000  C
  H422     1.0000 0.81690  0.54850  0.25060  Biso   1.000  H
  H423     1.0000 0.86910  0.58450  0.21490  Biso   1.000  H
  C152     1.0000 0.87870  0.51080  0.16840  Biso   1.000  C
  H424     1.0000 0.84700  0.50400  0.12450  Biso   1.000  H
  H425     1.0000 0.91550  0.52030  0.13680  Biso   1.000  H
  C153     1.0000 0.88890  0.46630  0.23100  Biso   1.000  C
  H426     1.0000 0.92050  0.44510  0.20610  Biso   1.000  H
  H427     1.0000 0.85210  0.44650  0.23440  Biso   1.000  H
  C154     1.0000 0.90680  0.48290  0.32500  Biso   1.000  C
  H428     1.0000 0.94870  0.47510  0.33920  Biso   1.000  H
  H429     1.0000 0.88030  0.46950  0.37150  Biso   1.000  H
  H430     1.0000 0.81530  0.68840  0.03210  Biso   1.000  H
  H431     1.0000 0.83710  0.66880  0.93760  Biso   1.000  H
  C155     1.0000 0.86610  0.62450  0.04180  Biso   1.000  C
  H432     1.0000 0.86630  0.62500  0.10750  Biso   1.000  H
  H433     1.0000 0.84200  0.59660  0.01940  Biso   1.000  H
  H434     1.0000 0.95660  0.60640  0.03460  Biso   1.000  H
  H435     1.0000 0.92760  0.61470  0.93860  Biso   1.000  H
  H436     1.0000 0.97530  0.68850  0.94710  Biso   1.000  H
  H437     1.0000 0.96540  0.70620  0.05370  Biso   1.000  H
  H438     1.0000 0.06780  0.70290  0.94000  Biso   1.000  H
  H439     1.0000 0.05710  0.67160  0.02950  Biso   1.000  H
  C156     1.0000 0.08260  0.74540  0.05580  Biso   1.000  C
  H440     1.0000 0.08350  0.73770  0.12000  Biso   1.000  H
  H441     1.0000 0.12330  0.75230  0.03440  Biso   1.000  H
  C157     1.0000 0.03900  0.78790  0.03390  Biso   1.000  C
  H442     1.0000 0.05780  0.80970  0.98930  Biso   1.000  H
  H443     1.0000 0.03290  0.80770  0.08830  Biso   1.000  H
  H444     1.0000 0.99690  0.88560  0.05340  Biso   1.000  H
  H445     1.0000 0.02180  0.96500  0.94720  Biso   1.000  H
  H446     1.0000 0.92690  0.99380  0.94190  Biso   1.000  H
  H447     1.0000 0.93250  0.00490  0.04640  Biso   1.000  H
  C158     1.0000 0.89260  0.93600  0.02040  Biso   1.000  C
  H448     1.0000 0.85590  0.94090  0.98540  Biso   1.000  H
  H449     1.0000 0.88160  0.93710  0.08400  Biso   1.000  H
  H450     1.0000 0.90980  0.94490  0.04350  Biso   1.000  H
  H451     1.0000 0.92040  0.93220  0.94110  Biso   1.000  H
  H452     1.0000 0.94820  0.89760  0.01640  Biso   1.000  H
  Cs11     1.0000 0.89381  0.59215  0.50000  Biso   1.000  Cs
  Cu15     1.0000 0.95512  0.73089  0.50000  Biso   1.000  Cu
  Cu16     1.0000 0.97608  0.84151  0.50000  Biso   1.000  Cu
  Cu17     1.0000 0.00245  0.94633  0.50000  Biso   1.000  Cu
  Si45     1.0000 0.83717  0.91181  0.50000  Biso   1.000  Si
  Si46     1.0000 0.79498  0.71378  0.50000  Biso   1.000  Si
  O137     1.0000 0.84330  0.76040  0.50000  Biso   1.000  O
  O138     1.0000 0.86350  0.85460  0.50000  Biso   1.000  O
  C159     1.0000 0.75370  0.91250  0.50000  Biso   1.000  C
  H453     1.0000 0.73960  0.94670  0.50000  Biso   1.000  H
  C160     1.0000 0.71640  0.73820  0.50000  Biso   1.000  C
  H454     1.0000 0.68850  0.71050  0.50000  Biso   1.000  H
  O139     1.0000 0.02360  0.51110  0.50000  Biso   1.000  O
  Cs12     1.0000 0.10619  0.40785  0.50000  Biso   1.000  Cs
  Cu18     1.0000 0.04488  0.26911  0.50000  Biso   1.000  Cu
  Cu19     1.0000 0.02392  0.15849  0.50000  Biso   1.000  Cu
  Cu20     1.0000 0.99755  0.05367  0.50000  Biso   1.000  Cu
  Si47     1.0000 0.16283  0.08819  0.50000  Biso   1.000  Si
  Si48     1.0000 0.20502  0.28622  0.50000  Biso   1.000  Si
  O140     1.0000 0.15670  0.23960  0.50000  Biso   1.000  O
  O141     1.0000 0.13650  0.14540  0.50000  Biso   1.000  O
  C161     1.0000 0.24630  0.08750  0.50000  Biso   1.000  C
  H455     1.0000 0.26040  0.05330  0.50000  Biso   1.000  H
  C162     1.0000 0.28360  0.26180  0.50000  Biso   1.000  C
  H456     1.0000 0.31150  0.28950  0.50000  Biso   1.000  H
  O142     1.0000 0.97640  0.48890  0.50000  Biso   1.000  O
  O143     1.0000 0.89710  0.71060  0.00000  Biso   1.000  O
  C163     1.0000 0.84970  0.67460  0.00000  Biso   1.000  C
  C164     1.0000 0.92890  0.62720  0.00000  Biso   1.000  C
  C165     1.0000 0.95100  0.68150  0.00000  Biso   1.000  C
  O144     1.0000 0.98160  0.77300  0.00000  Biso   1.000  O
  C166     1.0000 0.98550  0.71970  0.00000  Biso   1.000  C
  C167     1.0000 0.05180  0.70430  0.00000  Biso   1.000  C
  O145     1.0000 0.91670  0.88780  0.00000  Biso   1.000  O
  C168     1.0000 0.97880  0.90140  0.00000  Biso   1.000  C
  C169     1.0000 0.99880  0.95620  0.00000  Biso   1.000  C
  C170     1.0000 0.93580  0.97900  0.00000  Biso   1.000  C
  O146     1.0000 0.82710  0.72240  0.00000  Biso   1.000  O
  O147     1.0000 0.86420  0.89010  0.00000  Biso   1.000  O
  C171     1.0000 0.91410  0.91810  0.00000  Biso   1.000  C
  O148     1.0000 0.10290  0.28940  0.00000  Biso   1.000  O
  C172     1.0000 0.15030  0.32540  0.00000  Biso   1.000  C
  C173     1.0000 0.07110  0.37280  0.00000  Biso   1.000  C
  C174     1.0000 0.04900  0.31850  0.00000  Biso   1.000  C
  O149     1.0000 0.01840  0.22700  0.00000  Biso   1.000  O
  C175     1.0000 0.01450  0.28030  0.00000  Biso   1.000  C
  C176     1.0000 0.94820  0.29570  0.00000  Biso   1.000  C
  O150     1.0000 0.08330  0.11220  0.00000  Biso   1.000  O
  C177     1.0000 0.02120  0.09860  0.00000  Biso   1.000  C
  C178     1.0000 0.00120  0.04380  0.00000  Biso   1.000  C
  C179     1.0000 0.06420  0.02100  0.00000  Biso   1.000  C
  O151     1.0000 0.17290  0.27760  0.00000  Biso   1.000  O
  O152     1.0000 0.13580  0.10990  0.00000  Biso   1.000  O
  C180     1.0000 0.08590  0.08190  0.00000  Biso   1.000  C
