data_image0
_cell_length_a       32.767
_cell_length_b       32.767
_cell_length_c       32.767
_cell_angle_alpha    90
_cell_angle_beta     90
_cell_angle_gamma    90

_symmetry_space_group_name_H-M    "P 1"
_symmetry_int_tables_number       1

loop_
  _symmetry_equiv_pos_as_xyz
  'x, y, z'

loop_
  _atom_site_label
  _atom_site_occupancy
  _atom_site_fract_x
  _atom_site_fract_y
  _atom_site_fract_z
  _atom_site_thermal_displace_type
  _atom_site_B_iso_or_equiv
  _atom_site_type_symbol
  Zn1      1.0000 0.29392  0.12430  0.16432  Biso   1.000  Zn
  C1       1.0000 0.28400  0.09420  0.03710  Biso   1.000  C
  C2       1.0000 0.30550  0.10060  0.07710  Biso   1.000  C
  O1       1.0000 0.34370  0.10438  0.07580  Biso   1.000  O
  O2       1.0000 0.28370  0.10295  0.10735  Biso   1.000  O
  C3       1.0000 0.24220  0.08840  0.03610  Biso   1.000  C
  H1       1.0000 0.22830  0.08460  0.06060  Biso   1.000  H
  C4       1.0000 0.30310  0.03650  0.25430  Biso   1.000  C
  C5       1.0000 0.30270  0.07580  0.23190  Biso   1.000  C
  O3       1.0000 0.30325  0.07300  0.19320  Biso   1.000  O
  O4       1.0000 0.30190  0.10950  0.25050  Biso   1.000  O
  C6       1.0000 0.30060  0.03560  0.29780  Biso   1.000  C
  H2       1.0000 0.30040  0.06010  0.31210  Biso   1.000  H
  Zn2      1.0000 0.70608  0.87570  0.16432  Biso   1.000  Zn
  C7       1.0000 0.71600  0.90580  0.03710  Biso   1.000  C
  C8       1.0000 0.69450  0.89940  0.07710  Biso   1.000  C
  O5       1.0000 0.65630  0.89562  0.07580  Biso   1.000  O
  O6       1.0000 0.71630  0.89705  0.10735  Biso   1.000  O
  C9       1.0000 0.75780  0.91160  0.03610  Biso   1.000  C
  H3       1.0000 0.77170  0.91540  0.06060  Biso   1.000  H
  C10      1.0000 0.69690  0.96350  0.25430  Biso   1.000  C
  C11      1.0000 0.69730  0.92420  0.23190  Biso   1.000  C
  O7       1.0000 0.69675  0.92700  0.19320  Biso   1.000  O
  O8       1.0000 0.69810  0.89050  0.25050  Biso   1.000  O
  C12      1.0000 0.69940  0.96440  0.29780  Biso   1.000  C
  H4       1.0000 0.69960  0.93990  0.31210  Biso   1.000  H
  Zn3      1.0000 0.70608  0.12430  0.83568  Biso   1.000  Zn
  C13      1.0000 0.71600  0.09420  0.96290  Biso   1.000  C
  C14      1.0000 0.69450  0.10060  0.92290  Biso   1.000  C
  O9       1.0000 0.65630  0.10438  0.92420  Biso   1.000  O
  O10      1.0000 0.71630  0.10295  0.89265  Biso   1.000  O
  C15      1.0000 0.75780  0.08840  0.96390  Biso   1.000  C
  H5       1.0000 0.77170  0.08460  0.93940  Biso   1.000  H
  C16      1.0000 0.69690  0.03650  0.74570  Biso   1.000  C
  C17      1.0000 0.69730  0.07580  0.76810  Biso   1.000  C
  O11      1.0000 0.69675  0.07300  0.80680  Biso   1.000  O
  O12      1.0000 0.69810  0.10950  0.74950  Biso   1.000  O
  C18      1.0000 0.69940  0.03560  0.70220  Biso   1.000  C
  H6       1.0000 0.69960  0.06010  0.68790  Biso   1.000  H
  Zn4      1.0000 0.29392  0.87570  0.83568  Biso   1.000  Zn
  C19      1.0000 0.28400  0.90580  0.96290  Biso   1.000  C
  C20      1.0000 0.30550  0.89940  0.92290  Biso   1.000  C
  O13      1.0000 0.34370  0.89562  0.92420  Biso   1.000  O
  O14      1.0000 0.28370  0.89705  0.89265  Biso   1.000  O
  C21      1.0000 0.24220  0.91160  0.96390  Biso   1.000  C
  H7       1.0000 0.22830  0.91540  0.93940  Biso   1.000  H
  C22      1.0000 0.30310  0.96350  0.74570  Biso   1.000  C
  C23      1.0000 0.30270  0.92420  0.76810  Biso   1.000  C
  O15      1.0000 0.30325  0.92700  0.80680  Biso   1.000  O
  O16      1.0000 0.30190  0.89050  0.74950  Biso   1.000  O
  C24      1.0000 0.30060  0.96440  0.70220  Biso   1.000  C
  H8       1.0000 0.30040  0.93990  0.68790  Biso   1.000  H
  Zn5      1.0000 0.66432  0.79392  0.12430  Biso   1.000  Zn
  C25      1.0000 0.53710  0.78400  0.09420  Biso   1.000  C
  C26      1.0000 0.57710  0.80550  0.10060  Biso   1.000  C
  O17      1.0000 0.57580  0.84370  0.10438  Biso   1.000  O
  O18      1.0000 0.60735  0.78370  0.10295  Biso   1.000  O
  C27      1.0000 0.53610  0.74220  0.08840  Biso   1.000  C
  H9       1.0000 0.56060  0.72830  0.08460  Biso   1.000  H
  C28      1.0000 0.75430  0.80310  0.03650  Biso   1.000  C
  C29      1.0000 0.73190  0.80270  0.07580  Biso   1.000  C
  O19      1.0000 0.69320  0.80325  0.07300  Biso   1.000  O
  O20      1.0000 0.75050  0.80190  0.10950  Biso   1.000  O
  C30      1.0000 0.79780  0.80060  0.03560  Biso   1.000  C
  H10      1.0000 0.81210  0.80040  0.06010  Biso   1.000  H
  Zn6      1.0000 0.66432  0.20608  0.87570  Biso   1.000  Zn
  C31      1.0000 0.53710  0.21600  0.90580  Biso   1.000  C
  C32      1.0000 0.57710  0.19450  0.89940  Biso   1.000  C
  O21      1.0000 0.57580  0.15630  0.89562  Biso   1.000  O
  O22      1.0000 0.60735  0.21630  0.89705  Biso   1.000  O
  C33      1.0000 0.53610  0.25780  0.91160  Biso   1.000  C
  H11      1.0000 0.56060  0.27170  0.91540  Biso   1.000  H
  C34      1.0000 0.75430  0.19690  0.96350  Biso   1.000  C
  C35      1.0000 0.73190  0.19730  0.92420  Biso   1.000  C
  O23      1.0000 0.69320  0.19675  0.92700  Biso   1.000  O
  O24      1.0000 0.75050  0.19810  0.89050  Biso   1.000  O
  C36      1.0000 0.79780  0.19940  0.96440  Biso   1.000  C
  H12      1.0000 0.81210  0.19960  0.93990  Biso   1.000  H
  Zn7      1.0000 0.33568  0.20608  0.12430  Biso   1.000  Zn
  C37      1.0000 0.46290  0.21600  0.09420  Biso   1.000  C
  C38      1.0000 0.42290  0.19450  0.10060  Biso   1.000  C
  O25      1.0000 0.42420  0.15630  0.10438  Biso   1.000  O
  O26      1.0000 0.39265  0.21630  0.10295  Biso   1.000  O
  C39      1.0000 0.46390  0.25780  0.08840  Biso   1.000  C
  H13      1.0000 0.43940  0.27170  0.08460  Biso   1.000  H
  C40      1.0000 0.24570  0.19690  0.03650  Biso   1.000  C
  C41      1.0000 0.26810  0.19730  0.07580  Biso   1.000  C
  O27      1.0000 0.30680  0.19675  0.07300  Biso   1.000  O
  O28      1.0000 0.24950  0.19810  0.10950  Biso   1.000  O
  C42      1.0000 0.20220  0.19940  0.03560  Biso   1.000  C
  H14      1.0000 0.18790  0.19960  0.06010  Biso   1.000  H
  Zn8      1.0000 0.33568  0.79392  0.87570  Biso   1.000  Zn
  C43      1.0000 0.46290  0.78400  0.90580  Biso   1.000  C
  C44      1.0000 0.42290  0.80550  0.89940  Biso   1.000  C
  O29      1.0000 0.42420  0.84370  0.89562  Biso   1.000  O
  O30      1.0000 0.39265  0.78370  0.89705  Biso   1.000  O
  C45      1.0000 0.46390  0.74220  0.91160  Biso   1.000  C
  H15      1.0000 0.43940  0.72830  0.91540  Biso   1.000  H
  C46      1.0000 0.24570  0.80310  0.96350  Biso   1.000  C
  C47      1.0000 0.26810  0.80270  0.92420  Biso   1.000  C
  O31      1.0000 0.30680  0.80325  0.92700  Biso   1.000  O
  O32      1.0000 0.24950  0.80190  0.89050  Biso   1.000  O
  C48      1.0000 0.20220  0.80060  0.96440  Biso   1.000  C
  H16      1.0000 0.18790  0.80040  0.93990  Biso   1.000  H
  Zn9      1.0000 0.62430  0.16432  0.79392  Biso   1.000  Zn
  C49      1.0000 0.59420  0.03710  0.78400  Biso   1.000  C
  C50      1.0000 0.60060  0.07710  0.80550  Biso   1.000  C
  O33      1.0000 0.60438  0.07580  0.84370  Biso   1.000  O
  O34      1.0000 0.60295  0.10735  0.78370  Biso   1.000  O
  C51      1.0000 0.58840  0.03610  0.74220  Biso   1.000  C
  H17      1.0000 0.58460  0.06060  0.72830  Biso   1.000  H
  C52      1.0000 0.53650  0.25430  0.80310  Biso   1.000  C
  C53      1.0000 0.57580  0.23190  0.80270  Biso   1.000  C
  O35      1.0000 0.57300  0.19320  0.80325  Biso   1.000  O
  O36      1.0000 0.60950  0.25050  0.80190  Biso   1.000  O
  C54      1.0000 0.53560  0.29780  0.80060  Biso   1.000  C
  H18      1.0000 0.56010  0.31210  0.80040  Biso   1.000  H
  Zn10     1.0000 0.37570  0.16432  0.20608  Biso   1.000  Zn
  C55      1.0000 0.40580  0.03710  0.21600  Biso   1.000  C
  C56      1.0000 0.39940  0.07710  0.19450  Biso   1.000  C
  O37      1.0000 0.39562  0.07580  0.15630  Biso   1.000  O
  O38      1.0000 0.39705  0.10735  0.21630  Biso   1.000  O
  C57      1.0000 0.41160  0.03610  0.25780  Biso   1.000  C
  H19      1.0000 0.41540  0.06060  0.27170  Biso   1.000  H
  C58      1.0000 0.46350  0.25430  0.19690  Biso   1.000  C
  C59      1.0000 0.42420  0.23190  0.19730  Biso   1.000  C
  O39      1.0000 0.42700  0.19320  0.19675  Biso   1.000  O
  O40      1.0000 0.39050  0.25050  0.19810  Biso   1.000  O
  C60      1.0000 0.46440  0.29780  0.19940  Biso   1.000  C
  H20      1.0000 0.43990  0.31210  0.19960  Biso   1.000  H
  Zn11     1.0000 0.62430  0.83568  0.20608  Biso   1.000  Zn
  C61      1.0000 0.59420  0.96290  0.21600  Biso   1.000  C
  C62      1.0000 0.60060  0.92290  0.19450  Biso   1.000  C
  O41      1.0000 0.60438  0.92420  0.15630  Biso   1.000  O
  O42      1.0000 0.60295  0.89265  0.21630  Biso   1.000  O
  C63      1.0000 0.58840  0.96390  0.25780  Biso   1.000  C
  H21      1.0000 0.58460  0.93940  0.27170  Biso   1.000  H
  C64      1.0000 0.53650  0.74570  0.19690  Biso   1.000  C
  C65      1.0000 0.57580  0.76810  0.19730  Biso   1.000  C
  O43      1.0000 0.57300  0.80680  0.19675  Biso   1.000  O
  O44      1.0000 0.60950  0.74950  0.19810  Biso   1.000  O
  C66      1.0000 0.53560  0.70220  0.19940  Biso   1.000  C
  H22      1.0000 0.56010  0.68790  0.19960  Biso   1.000  H
  Zn12     1.0000 0.37570  0.83568  0.79392  Biso   1.000  Zn
  C67      1.0000 0.40580  0.96290  0.78400  Biso   1.000  C
  C68      1.0000 0.39940  0.92290  0.80550  Biso   1.000  C
  O45      1.0000 0.39562  0.92420  0.84370  Biso   1.000  O
  O46      1.0000 0.39705  0.89265  0.78370  Biso   1.000  O
  C69      1.0000 0.41160  0.96390  0.74220  Biso   1.000  C
  H23      1.0000 0.41540  0.93940  0.72830  Biso   1.000  H
  C70      1.0000 0.46350  0.74570  0.80310  Biso   1.000  C
  C71      1.0000 0.42420  0.76810  0.80270  Biso   1.000  C
  O47      1.0000 0.42700  0.80680  0.80325  Biso   1.000  O
  O48      1.0000 0.39050  0.74950  0.80190  Biso   1.000  O
  C72      1.0000 0.46440  0.70220  0.80060  Biso   1.000  C
  H24      1.0000 0.43990  0.68790  0.80040  Biso   1.000  H
  Zn13     1.0000 0.70608  0.87570  0.83568  Biso   1.000  Zn
  C73      1.0000 0.71600  0.90580  0.96290  Biso   1.000  C
  C74      1.0000 0.69450  0.89940  0.92290  Biso   1.000  C
  O49      1.0000 0.65630  0.89562  0.92420  Biso   1.000  O
  O50      1.0000 0.71630  0.89705  0.89265  Biso   1.000  O
  C75      1.0000 0.75780  0.91160  0.96390  Biso   1.000  C
  H25      1.0000 0.77170  0.91540  0.93940  Biso   1.000  H
  C76      1.0000 0.69690  0.96350  0.74570  Biso   1.000  C
  C77      1.0000 0.69730  0.92420  0.76810  Biso   1.000  C
  O51      1.0000 0.69675  0.92700  0.80680  Biso   1.000  O
  O52      1.0000 0.69810  0.89050  0.74950  Biso   1.000  O
  C78      1.0000 0.69940  0.96440  0.70220  Biso   1.000  C
  H26      1.0000 0.69960  0.93990  0.68790  Biso   1.000  H
  Zn14     1.0000 0.29392  0.12430  0.83568  Biso   1.000  Zn
  C79      1.0000 0.28400  0.09420  0.96290  Biso   1.000  C
  C80      1.0000 0.30550  0.10060  0.92290  Biso   1.000  C
  O53      1.0000 0.34370  0.10438  0.92420  Biso   1.000  O
  O54      1.0000 0.28370  0.10295  0.89265  Biso   1.000  O
  C81      1.0000 0.24220  0.08840  0.96390  Biso   1.000  C
  H27      1.0000 0.22830  0.08460  0.93940  Biso   1.000  H
  C82      1.0000 0.30310  0.03650  0.74570  Biso   1.000  C
  C83      1.0000 0.30270  0.07580  0.76810  Biso   1.000  C
  O55      1.0000 0.30325  0.07300  0.80680  Biso   1.000  O
  O56      1.0000 0.30190  0.10950  0.74950  Biso   1.000  O
  C84      1.0000 0.30060  0.03560  0.70220  Biso   1.000  C
  H28      1.0000 0.30040  0.06010  0.68790  Biso   1.000  H
  Zn15     1.0000 0.29392  0.87570  0.16432  Biso   1.000  Zn
  C85      1.0000 0.28400  0.90580  0.03710  Biso   1.000  C
  C86      1.0000 0.30550  0.89940  0.07710  Biso   1.000  C
  O57      1.0000 0.34370  0.89562  0.07580  Biso   1.000  O
  O58      1.0000 0.28370  0.89705  0.10735  Biso   1.000  O
  C87      1.0000 0.24220  0.91160  0.03610  Biso   1.000  C
  H29      1.0000 0.22830  0.91540  0.06060  Biso   1.000  H
  C88      1.0000 0.30310  0.96350  0.25430  Biso   1.000  C
  C89      1.0000 0.30270  0.92420  0.23190  Biso   1.000  C
  O59      1.0000 0.30325  0.92700  0.19320  Biso   1.000  O
  O60      1.0000 0.30190  0.89050  0.25050  Biso   1.000  O
  C90      1.0000 0.30060  0.96440  0.29780  Biso   1.000  C
  H30      1.0000 0.30040  0.93990  0.31210  Biso   1.000  H
  Zn16     1.0000 0.70608  0.12430  0.16432  Biso   1.000  Zn
  C91      1.0000 0.71600  0.09420  0.03710  Biso   1.000  C
  C92      1.0000 0.69450  0.10060  0.07710  Biso   1.000  C
  O61      1.0000 0.65630  0.10438  0.07580  Biso   1.000  O
  O62      1.0000 0.71630  0.10295  0.10735  Biso   1.000  O
  C93      1.0000 0.75780  0.08840  0.03610  Biso   1.000  C
  H31      1.0000 0.77170  0.08460  0.06060  Biso   1.000  H
  C94      1.0000 0.69690  0.03650  0.25430  Biso   1.000  C
  C95      1.0000 0.69730  0.07580  0.23190  Biso   1.000  C
  O63      1.0000 0.69675  0.07300  0.19320  Biso   1.000  O
  O64      1.0000 0.69810  0.10950  0.25050  Biso   1.000  O
  C96      1.0000 0.69940  0.03560  0.29780  Biso   1.000  C
  H32      1.0000 0.69960  0.06010  0.31210  Biso   1.000  H
  Zn17     1.0000 0.33568  0.20608  0.87570  Biso   1.000  Zn
  C97      1.0000 0.46290  0.21600  0.90580  Biso   1.000  C
  C98      1.0000 0.42290  0.19450  0.89940  Biso   1.000  C
  O65      1.0000 0.42420  0.15630  0.89562  Biso   1.000  O
  O66      1.0000 0.39265  0.21630  0.89705  Biso   1.000  O
  C99      1.0000 0.46390  0.25780  0.91160  Biso   1.000  C
  H33      1.0000 0.43940  0.27170  0.91540  Biso   1.000  H
  C100     1.0000 0.24570  0.19690  0.96350  Biso   1.000  C
  C101     1.0000 0.26810  0.19730  0.92420  Biso   1.000  C
  O67      1.0000 0.30680  0.19675  0.92700  Biso   1.000  O
  O68      1.0000 0.24950  0.19810  0.89050  Biso   1.000  O
  C102     1.0000 0.20220  0.19940  0.96440  Biso   1.000  C
  H34      1.0000 0.18790  0.19960  0.93990  Biso   1.000  H
  Zn18     1.0000 0.33568  0.79392  0.12430  Biso   1.000  Zn
  C103     1.0000 0.46290  0.78400  0.09420  Biso   1.000  C
  C104     1.0000 0.42290  0.80550  0.10060  Biso   1.000  C
  O69      1.0000 0.42420  0.84370  0.10438  Biso   1.000  O
  O70      1.0000 0.39265  0.78370  0.10295  Biso   1.000  O
  C105     1.0000 0.46390  0.74220  0.08840  Biso   1.000  C
  H35      1.0000 0.43940  0.72830  0.08460  Biso   1.000  H
  C106     1.0000 0.24570  0.80310  0.03650  Biso   1.000  C
  C107     1.0000 0.26810  0.80270  0.07580  Biso   1.000  C
  O71      1.0000 0.30680  0.80325  0.07300  Biso   1.000  O
  O72      1.0000 0.24950  0.80190  0.10950  Biso   1.000  O
  C108     1.0000 0.20220  0.80060  0.03560  Biso   1.000  C
  H36      1.0000 0.18790  0.80040  0.06010  Biso   1.000  H
  Zn19     1.0000 0.66432  0.79392  0.87570  Biso   1.000  Zn
  C109     1.0000 0.53710  0.78400  0.90580  Biso   1.000  C
  C110     1.0000 0.57710  0.80550  0.89940  Biso   1.000  C
  O73      1.0000 0.57580  0.84370  0.89562  Biso   1.000  O
  O74      1.0000 0.60735  0.78370  0.89705  Biso   1.000  O
  C111     1.0000 0.53610  0.74220  0.91160  Biso   1.000  C
  H37      1.0000 0.56060  0.72830  0.91540  Biso   1.000  H
  C112     1.0000 0.75430  0.80310  0.96350  Biso   1.000  C
  C113     1.0000 0.73190  0.80270  0.92420  Biso   1.000  C
  O75      1.0000 0.69320  0.80325  0.92700  Biso   1.000  O
  O76      1.0000 0.75050  0.80190  0.89050  Biso   1.000  O
  C114     1.0000 0.79780  0.80060  0.96440  Biso   1.000  C
  H38      1.0000 0.81210  0.80040  0.93990  Biso   1.000  H
  Zn20     1.0000 0.66432  0.20608  0.12430  Biso   1.000  Zn
  C115     1.0000 0.53710  0.21600  0.09420  Biso   1.000  C
  C116     1.0000 0.57710  0.19450  0.10060  Biso   1.000  C
  O77      1.0000 0.57580  0.15630  0.10438  Biso   1.000  O
  O78      1.0000 0.60735  0.21630  0.10295  Biso   1.000  O
  C117     1.0000 0.53610  0.25780  0.08840  Biso   1.000  C
  H39      1.0000 0.56060  0.27170  0.08460  Biso   1.000  H
  C118     1.0000 0.75430  0.19690  0.03650  Biso   1.000  C
  C119     1.0000 0.73190  0.19730  0.07580  Biso   1.000  C
  O79      1.0000 0.69320  0.19675  0.07300  Biso   1.000  O
  O80      1.0000 0.75050  0.19810  0.10950  Biso   1.000  O
  C120     1.0000 0.79780  0.19940  0.03560  Biso   1.000  C
  H40      1.0000 0.81210  0.19960  0.06010  Biso   1.000  H
  Zn21     1.0000 0.37570  0.83568  0.20608  Biso   1.000  Zn
  C121     1.0000 0.40580  0.96290  0.21600  Biso   1.000  C
  C122     1.0000 0.39940  0.92290  0.19450  Biso   1.000  C
  O81      1.0000 0.39562  0.92420  0.15630  Biso   1.000  O
  O82      1.0000 0.39705  0.89265  0.21630  Biso   1.000  O
  C123     1.0000 0.41160  0.96390  0.25780  Biso   1.000  C
  H41      1.0000 0.41540  0.93940  0.27170  Biso   1.000  H
  C124     1.0000 0.46350  0.74570  0.19690  Biso   1.000  C
  C125     1.0000 0.42420  0.76810  0.19730  Biso   1.000  C
  O83      1.0000 0.42700  0.80680  0.19675  Biso   1.000  O
  O84      1.0000 0.39050  0.74950  0.19810  Biso   1.000  O
  C126     1.0000 0.46440  0.70220  0.19940  Biso   1.000  C
  H42      1.0000 0.43990  0.68790  0.19960  Biso   1.000  H
  Zn22     1.0000 0.62430  0.83568  0.79392  Biso   1.000  Zn
  C127     1.0000 0.59420  0.96290  0.78400  Biso   1.000  C
  C128     1.0000 0.60060  0.92290  0.80550  Biso   1.000  C
  O85      1.0000 0.60438  0.92420  0.84370  Biso   1.000  O
  O86      1.0000 0.60295  0.89265  0.78370  Biso   1.000  O
  C129     1.0000 0.58840  0.96390  0.74220  Biso   1.000  C
  H43      1.0000 0.58460  0.93940  0.72830  Biso   1.000  H
  C130     1.0000 0.53650  0.74570  0.80310  Biso   1.000  C
  C131     1.0000 0.57580  0.76810  0.80270  Biso   1.000  C
  O87      1.0000 0.57300  0.80680  0.80325  Biso   1.000  O
  O88      1.0000 0.60950  0.74950  0.80190  Biso   1.000  O
  C132     1.0000 0.53560  0.70220  0.80060  Biso   1.000  C
  H44      1.0000 0.56010  0.68790  0.80040  Biso   1.000  H
  Zn23     1.0000 0.37570  0.16432  0.79392  Biso   1.000  Zn
  C133     1.0000 0.40580  0.03710  0.78400  Biso   1.000  C
  C134     1.0000 0.39940  0.07710  0.80550  Biso   1.000  C
  O89      1.0000 0.39562  0.07580  0.84370  Biso   1.000  O
  O90      1.0000 0.39705  0.10735  0.78370  Biso   1.000  O
  C135     1.0000 0.41160  0.03610  0.74220  Biso   1.000  C
  H45      1.0000 0.41540  0.06060  0.72830  Biso   1.000  H
  C136     1.0000 0.46350  0.25430  0.80310  Biso   1.000  C
  C137     1.0000 0.42420  0.23190  0.80270  Biso   1.000  C
  O91      1.0000 0.42700  0.19320  0.80325  Biso   1.000  O
  O92      1.0000 0.39050  0.25050  0.80190  Biso   1.000  O
  C138     1.0000 0.46440  0.29780  0.80060  Biso   1.000  C
  H46      1.0000 0.43990  0.31210  0.80040  Biso   1.000  H
  Zn24     1.0000 0.62430  0.16432  0.20608  Biso   1.000  Zn
  C139     1.0000 0.59420  0.03710  0.21600  Biso   1.000  C
  C140     1.0000 0.60060  0.07710  0.19450  Biso   1.000  C
  O93      1.0000 0.60438  0.07580  0.15630  Biso   1.000  O
  O94      1.0000 0.60295  0.10735  0.21630  Biso   1.000  O
  C141     1.0000 0.58840  0.03610  0.25780  Biso   1.000  C
  H47      1.0000 0.58460  0.06060  0.27170  Biso   1.000  H
  C142     1.0000 0.53650  0.25430  0.19690  Biso   1.000  C
  C143     1.0000 0.57580  0.23190  0.19730  Biso   1.000  C
  O95      1.0000 0.57300  0.19320  0.19675  Biso   1.000  O
  O96      1.0000 0.60950  0.25050  0.19810  Biso   1.000  O
  C144     1.0000 0.53560  0.29780  0.19940  Biso   1.000  C
  H48      1.0000 0.56010  0.31210  0.19960  Biso   1.000  H
  Zn25     1.0000 0.37806  0.12194  0.12194  Biso   1.000  Zn
  O97      1.0000 0.34383  0.15617  0.15617  Biso   1.000  O
  Zn26     1.0000 0.62194  0.87806  0.12194  Biso   1.000  Zn
  O98      1.0000 0.65617  0.84383  0.15617  Biso   1.000  O
  Zn27     1.0000 0.62194  0.12194  0.87806  Biso   1.000  Zn
  O99      1.0000 0.65617  0.15617  0.84383  Biso   1.000  O
  Zn28     1.0000 0.37806  0.87806  0.87806  Biso   1.000  Zn
  O100     1.0000 0.34383  0.84383  0.84383  Biso   1.000  O
  Zn29     1.0000 0.62194  0.87806  0.87806  Biso   1.000  Zn
  O101     1.0000 0.65617  0.84383  0.84383  Biso   1.000  O
  Zn30     1.0000 0.37806  0.12194  0.87806  Biso   1.000  Zn
  O102     1.0000 0.34383  0.15617  0.84383  Biso   1.000  O
  Zn31     1.0000 0.37806  0.87806  0.12194  Biso   1.000  Zn
  O103     1.0000 0.34383  0.84383  0.15617  Biso   1.000  O
  Zn32     1.0000 0.62194  0.12194  0.12194  Biso   1.000  Zn
  O104     1.0000 0.65617  0.15617  0.15617  Biso   1.000  O
  C145     1.0000 0.30560  0.09760  0.00000  Biso   1.000  C
  H49      1.0000 0.33360  0.10200  0.00000  Biso   1.000  H
  C146     1.0000 0.22030  0.08800  0.00000  Biso   1.000  C
  C147     1.0000 0.17990  0.08470  0.00000  Biso   1.000  C
  N1       1.0000 0.14830  0.08180  0.00000  Biso   1.000  N
  C148     1.0000 0.69440  0.90240  0.00000  Biso   1.000  C
  H50      1.0000 0.66640  0.89800  0.00000  Biso   1.000  H
  C149     1.0000 0.77970  0.91200  0.00000  Biso   1.000  C
  C150     1.0000 0.82010  0.91530  0.00000  Biso   1.000  C
  N2       1.0000 0.85170  0.91820  0.00000  Biso   1.000  N
  C151     1.0000 0.69440  0.09760  0.00000  Biso   1.000  C
  H51      1.0000 0.66640  0.10200  0.00000  Biso   1.000  H
  C152     1.0000 0.77970  0.08800  0.00000  Biso   1.000  C
  C153     1.0000 0.82010  0.08470  0.00000  Biso   1.000  C
  N3       1.0000 0.85170  0.08180  0.00000  Biso   1.000  N
  C154     1.0000 0.30560  0.90240  0.00000  Biso   1.000  C
  H52      1.0000 0.33360  0.89800  0.00000  Biso   1.000  H
  C155     1.0000 0.22030  0.91200  0.00000  Biso   1.000  C
  C156     1.0000 0.17990  0.91530  0.00000  Biso   1.000  C
  N4       1.0000 0.14830  0.91820  0.00000  Biso   1.000  N
  C157     1.0000 0.50000  0.80560  0.09760  Biso   1.000  C
  H53      1.0000 0.50000  0.83360  0.10200  Biso   1.000  H
  C158     1.0000 0.50000  0.72030  0.08800  Biso   1.000  C
  C159     1.0000 0.50000  0.67990  0.08470  Biso   1.000  C
  N5       1.0000 0.50000  0.64830  0.08180  Biso   1.000  N
  C160     1.0000 0.50000  0.19440  0.90240  Biso   1.000  C
  H54      1.0000 0.50000  0.16640  0.89800  Biso   1.000  H
  C161     1.0000 0.50000  0.27970  0.91200  Biso   1.000  C
  C162     1.0000 0.50000  0.32010  0.91530  Biso   1.000  C
  N6       1.0000 0.50000  0.35170  0.91820  Biso   1.000  N
  C163     1.0000 0.50000  0.19440  0.09760  Biso   1.000  C
  H55      1.0000 0.50000  0.16640  0.10200  Biso   1.000  H
  C164     1.0000 0.50000  0.27970  0.08800  Biso   1.000  C
  C165     1.0000 0.50000  0.32010  0.08470  Biso   1.000  C
  N7       1.0000 0.50000  0.35170  0.08180  Biso   1.000  N
  C166     1.0000 0.50000  0.80560  0.90240  Biso   1.000  C
  H56      1.0000 0.50000  0.83360  0.89800  Biso   1.000  H
  C167     1.0000 0.50000  0.72030  0.91200  Biso   1.000  C
  C168     1.0000 0.50000  0.67990  0.91530  Biso   1.000  C
  N8       1.0000 0.50000  0.64830  0.91820  Biso   1.000  N
  C169     1.0000 0.59760  0.00000  0.80560  Biso   1.000  C
  H57      1.0000 0.60200  0.00000  0.83360  Biso   1.000  H
  C170     1.0000 0.58800  0.00000  0.72030  Biso   1.000  C
  C171     1.0000 0.58470  0.00000  0.67990  Biso   1.000  C
  N9       1.0000 0.58180  0.00000  0.64830  Biso   1.000  N
  C172     1.0000 0.40240  0.00000  0.19440  Biso   1.000  C
  H58      1.0000 0.39800  0.00000  0.16640  Biso   1.000  H
  C173     1.0000 0.41200  0.00000  0.27970  Biso   1.000  C
  C174     1.0000 0.41530  0.00000  0.32010  Biso   1.000  C
  N10      1.0000 0.41820  0.00000  0.35170  Biso   1.000  N
  C175     1.0000 0.59760  0.00000  0.19440  Biso   1.000  C
  H59      1.0000 0.60200  0.00000  0.16640  Biso   1.000  H
  C176     1.0000 0.58800  0.00000  0.27970  Biso   1.000  C
  C177     1.0000 0.58470  0.00000  0.32010  Biso   1.000  C
  N11      1.0000 0.58180  0.00000  0.35170  Biso   1.000  N
  C178     1.0000 0.40240  0.00000  0.80560  Biso   1.000  C
  H60      1.0000 0.39800  0.00000  0.83360  Biso   1.000  H
  C179     1.0000 0.41200  0.00000  0.72030  Biso   1.000  C
  C180     1.0000 0.41530  0.00000  0.67990  Biso   1.000  C
  N12      1.0000 0.41820  0.00000  0.64830  Biso   1.000  N
  C181     1.0000 0.30340  0.00000  0.23390  Biso   1.000  C
  H61      1.0000 0.30370  0.00000  0.20550  Biso   1.000  H
  C182     1.0000 0.29840  0.00000  0.31900  Biso   1.000  C
  C183     1.0000 0.29620  0.00000  0.36330  Biso   1.000  C
  N13      1.0000 0.29270  0.00000  0.39770  Biso   1.000  N
  C184     1.0000 0.69660  0.00000  0.23390  Biso   1.000  C
  H62      1.0000 0.69630  0.00000  0.20550  Biso   1.000  H
  C185     1.0000 0.70160  0.00000  0.31900  Biso   1.000  C
  C186     1.0000 0.70380  0.00000  0.36330  Biso   1.000  C
  N14      1.0000 0.70730  0.00000  0.39770  Biso   1.000  N
  C187     1.0000 0.69660  0.00000  0.76610  Biso   1.000  C
  H63      1.0000 0.69630  0.00000  0.79450  Biso   1.000  H
  C188     1.0000 0.70160  0.00000  0.68100  Biso   1.000  C
  C189     1.0000 0.70380  0.00000  0.63670  Biso   1.000  C
  N15      1.0000 0.70730  0.00000  0.60230  Biso   1.000  N
  C190     1.0000 0.30340  0.00000  0.76610  Biso   1.000  C
  H64      1.0000 0.30370  0.00000  0.79450  Biso   1.000  H
  C191     1.0000 0.29840  0.00000  0.68100  Biso   1.000  C
  C192     1.0000 0.29620  0.00000  0.63670  Biso   1.000  C
  N16      1.0000 0.29270  0.00000  0.60230  Biso   1.000  N
  C193     1.0000 0.73390  0.80340  0.00000  Biso   1.000  C
  H65      1.0000 0.70550  0.80370  0.00000  Biso   1.000  H
  C194     1.0000 0.81900  0.79840  0.00000  Biso   1.000  C
  C195     1.0000 0.86330  0.79620  0.00000  Biso   1.000  C
  N17      1.0000 0.89770  0.79270  0.00000  Biso   1.000  N
  C196     1.0000 0.73390  0.19660  0.00000  Biso   1.000  C
  H66      1.0000 0.70550  0.19630  0.00000  Biso   1.000  H
  C197     1.0000 0.81900  0.20160  0.00000  Biso   1.000  C
  C198     1.0000 0.86330  0.20380  0.00000  Biso   1.000  C
  N18      1.0000 0.89770  0.20730  0.00000  Biso   1.000  N
  C199     1.0000 0.26610  0.19660  0.00000  Biso   1.000  C
  H67      1.0000 0.29450  0.19630  0.00000  Biso   1.000  H
  C200     1.0000 0.18100  0.20160  0.00000  Biso   1.000  C
  C201     1.0000 0.13670  0.20380  0.00000  Biso   1.000  C
  N19      1.0000 0.10230  0.20730  0.00000  Biso   1.000  N
  C202     1.0000 0.26610  0.80340  0.00000  Biso   1.000  C
  H68      1.0000 0.29450  0.80370  0.00000  Biso   1.000  H
  C203     1.0000 0.18100  0.79840  0.00000  Biso   1.000  C
  C204     1.0000 0.13670  0.79620  0.00000  Biso   1.000  C
  N20      1.0000 0.10230  0.79270  0.00000  Biso   1.000  N
  C205     1.0000 0.50000  0.23390  0.80340  Biso   1.000  C
  H69      1.0000 0.50000  0.20550  0.80370  Biso   1.000  H
  C206     1.0000 0.50000  0.31900  0.79840  Biso   1.000  C
  C207     1.0000 0.50000  0.36330  0.79620  Biso   1.000  C
  N21      1.0000 0.50000  0.39770  0.79270  Biso   1.000  N
  C208     1.0000 0.50000  0.23390  0.19660  Biso   1.000  C
  H70      1.0000 0.50000  0.20550  0.19630  Biso   1.000  H
  C209     1.0000 0.50000  0.31900  0.20160  Biso   1.000  C
  C210     1.0000 0.50000  0.36330  0.20380  Biso   1.000  C
  N22      1.0000 0.50000  0.39770  0.20730  Biso   1.000  N
  C211     1.0000 0.50000  0.76610  0.19660  Biso   1.000  C
  H71      1.0000 0.50000  0.79450  0.19630  Biso   1.000  H
  C212     1.0000 0.50000  0.68100  0.20160  Biso   1.000  C
  C213     1.0000 0.50000  0.63670  0.20380  Biso   1.000  C
  N23      1.0000 0.50000  0.60230  0.20730  Biso   1.000  N
  C214     1.0000 0.50000  0.76610  0.80340  Biso   1.000  C
  H72      1.0000 0.50000  0.79450  0.80370  Biso   1.000  H
  C215     1.0000 0.50000  0.68100  0.79840  Biso   1.000  C
  C216     1.0000 0.50000  0.63670  0.79620  Biso   1.000  C
  N24      1.0000 0.50000  0.60230  0.79270  Biso   1.000  N
  Zn33     1.0000 0.29392  0.62430  0.66432  Biso   1.000  Zn
  C217     1.0000 0.28400  0.59420  0.53710  Biso   1.000  C
  C218     1.0000 0.30550  0.60060  0.57710  Biso   1.000  C
  O105     1.0000 0.34370  0.60438  0.57580  Biso   1.000  O
  O106     1.0000 0.28370  0.60295  0.60735  Biso   1.000  O
  C219     1.0000 0.24220  0.58840  0.53610  Biso   1.000  C
  H73      1.0000 0.22830  0.58460  0.56060  Biso   1.000  H
  C220     1.0000 0.30310  0.53650  0.75430  Biso   1.000  C
  C221     1.0000 0.30270  0.57580  0.73190  Biso   1.000  C
  O107     1.0000 0.30325  0.57300  0.69320  Biso   1.000  O
  O108     1.0000 0.30190  0.60950  0.75050  Biso   1.000  O
  C222     1.0000 0.30060  0.53560  0.79780  Biso   1.000  C
  H74      1.0000 0.30040  0.56010  0.81210  Biso   1.000  H
  Zn34     1.0000 0.70608  0.37570  0.66432  Biso   1.000  Zn
  C223     1.0000 0.71600  0.40580  0.53710  Biso   1.000  C
  C224     1.0000 0.69450  0.39940  0.57710  Biso   1.000  C
  O109     1.0000 0.65630  0.39562  0.57580  Biso   1.000  O
  O110     1.0000 0.71630  0.39705  0.60735  Biso   1.000  O
  C225     1.0000 0.75780  0.41160  0.53610  Biso   1.000  C
  H75      1.0000 0.77170  0.41540  0.56060  Biso   1.000  H
  C226     1.0000 0.69690  0.46350  0.75430  Biso   1.000  C
  C227     1.0000 0.69730  0.42420  0.73190  Biso   1.000  C
  O111     1.0000 0.69675  0.42700  0.69320  Biso   1.000  O
  O112     1.0000 0.69810  0.39050  0.75050  Biso   1.000  O
  C228     1.0000 0.69940  0.46440  0.79780  Biso   1.000  C
  H76      1.0000 0.69960  0.43990  0.81210  Biso   1.000  H
  Zn35     1.0000 0.70608  0.62430  0.33568  Biso   1.000  Zn
  C229     1.0000 0.71600  0.59420  0.46290  Biso   1.000  C
  C230     1.0000 0.69450  0.60060  0.42290  Biso   1.000  C
  O113     1.0000 0.65630  0.60438  0.42420  Biso   1.000  O
  O114     1.0000 0.71630  0.60295  0.39265  Biso   1.000  O
  C231     1.0000 0.75780  0.58840  0.46390  Biso   1.000  C
  H77      1.0000 0.77170  0.58460  0.43940  Biso   1.000  H
  C232     1.0000 0.69690  0.53650  0.24570  Biso   1.000  C
  C233     1.0000 0.69730  0.57580  0.26810  Biso   1.000  C
  O115     1.0000 0.69675  0.57300  0.30680  Biso   1.000  O
  O116     1.0000 0.69810  0.60950  0.24950  Biso   1.000  O
  C234     1.0000 0.69940  0.53560  0.20220  Biso   1.000  C
  H78      1.0000 0.69960  0.56010  0.18790  Biso   1.000  H
  Zn36     1.0000 0.29392  0.37570  0.33568  Biso   1.000  Zn
  C235     1.0000 0.28400  0.40580  0.46290  Biso   1.000  C
  C236     1.0000 0.30550  0.39940  0.42290  Biso   1.000  C
  O117     1.0000 0.34370  0.39562  0.42420  Biso   1.000  O
  O118     1.0000 0.28370  0.39705  0.39265  Biso   1.000  O
  C237     1.0000 0.24220  0.41160  0.46390  Biso   1.000  C
  H79      1.0000 0.22830  0.41540  0.43940  Biso   1.000  H
  C238     1.0000 0.30310  0.46350  0.24570  Biso   1.000  C
  C239     1.0000 0.30270  0.42420  0.26810  Biso   1.000  C
  O119     1.0000 0.30325  0.42700  0.30680  Biso   1.000  O
  O120     1.0000 0.30190  0.39050  0.24950  Biso   1.000  O
  C240     1.0000 0.30060  0.46440  0.20220  Biso   1.000  C
  H80      1.0000 0.30040  0.43990  0.18790  Biso   1.000  H
  Zn37     1.0000 0.66432  0.29392  0.62430  Biso   1.000  Zn
  C241     1.0000 0.53710  0.28400  0.59420  Biso   1.000  C
  C242     1.0000 0.57710  0.30550  0.60060  Biso   1.000  C
  O121     1.0000 0.57580  0.34370  0.60438  Biso   1.000  O
  O122     1.0000 0.60735  0.28370  0.60295  Biso   1.000  O
  C243     1.0000 0.53610  0.24220  0.58840  Biso   1.000  C
  H81      1.0000 0.56060  0.22830  0.58460  Biso   1.000  H
  C244     1.0000 0.75430  0.30310  0.53650  Biso   1.000  C
  C245     1.0000 0.73190  0.30270  0.57580  Biso   1.000  C
  O123     1.0000 0.69320  0.30325  0.57300  Biso   1.000  O
  O124     1.0000 0.75050  0.30190  0.60950  Biso   1.000  O
  C246     1.0000 0.79780  0.30060  0.53560  Biso   1.000  C
  H82      1.0000 0.81210  0.30040  0.56010  Biso   1.000  H
  Zn38     1.0000 0.66432  0.70608  0.37570  Biso   1.000  Zn
  C247     1.0000 0.53710  0.71600  0.40580  Biso   1.000  C
  C248     1.0000 0.57710  0.69450  0.39940  Biso   1.000  C
  O125     1.0000 0.57580  0.65630  0.39562  Biso   1.000  O
  O126     1.0000 0.60735  0.71630  0.39705  Biso   1.000  O
  C249     1.0000 0.53610  0.75780  0.41160  Biso   1.000  C
  H83      1.0000 0.56060  0.77170  0.41540  Biso   1.000  H
  C250     1.0000 0.75430  0.69690  0.46350  Biso   1.000  C
  C251     1.0000 0.73190  0.69730  0.42420  Biso   1.000  C
  O127     1.0000 0.69320  0.69675  0.42700  Biso   1.000  O
  O128     1.0000 0.75050  0.69810  0.39050  Biso   1.000  O
  C252     1.0000 0.79780  0.69940  0.46440  Biso   1.000  C
  H84      1.0000 0.81210  0.69960  0.43990  Biso   1.000  H
  Zn39     1.0000 0.33568  0.70608  0.62430  Biso   1.000  Zn
  C253     1.0000 0.46290  0.71600  0.59420  Biso   1.000  C
  C254     1.0000 0.42290  0.69450  0.60060  Biso   1.000  C
  O129     1.0000 0.42420  0.65630  0.60438  Biso   1.000  O
  O130     1.0000 0.39265  0.71630  0.60295  Biso   1.000  O
  C255     1.0000 0.46390  0.75780  0.58840  Biso   1.000  C
  H85      1.0000 0.43940  0.77170  0.58460  Biso   1.000  H
  C256     1.0000 0.24570  0.69690  0.53650  Biso   1.000  C
  C257     1.0000 0.26810  0.69730  0.57580  Biso   1.000  C
  O131     1.0000 0.30680  0.69675  0.57300  Biso   1.000  O
  O132     1.0000 0.24950  0.69810  0.60950  Biso   1.000  O
  C258     1.0000 0.20220  0.69940  0.53560  Biso   1.000  C
  H86      1.0000 0.18790  0.69960  0.56010  Biso   1.000  H
  Zn40     1.0000 0.33568  0.29392  0.37570  Biso   1.000  Zn
  C259     1.0000 0.46290  0.28400  0.40580  Biso   1.000  C
  C260     1.0000 0.42290  0.30550  0.39940  Biso   1.000  C
  O133     1.0000 0.42420  0.34370  0.39562  Biso   1.000  O
  O134     1.0000 0.39265  0.28370  0.39705  Biso   1.000  O
  C261     1.0000 0.46390  0.24220  0.41160  Biso   1.000  C
  H87      1.0000 0.43940  0.22830  0.41540  Biso   1.000  H
  C262     1.0000 0.24570  0.30310  0.46350  Biso   1.000  C
  C263     1.0000 0.26810  0.30270  0.42420  Biso   1.000  C
  O135     1.0000 0.30680  0.30325  0.42700  Biso   1.000  O
  O136     1.0000 0.24950  0.30190  0.39050  Biso   1.000  O
  C264     1.0000 0.20220  0.30060  0.46440  Biso   1.000  C
  H88      1.0000 0.18790  0.30040  0.43990  Biso   1.000  H
  Zn41     1.0000 0.62430  0.66432  0.29392  Biso   1.000  Zn
  C265     1.0000 0.59420  0.53710  0.28400  Biso   1.000  C
  C266     1.0000 0.60060  0.57710  0.30550  Biso   1.000  C
  O137     1.0000 0.60438  0.57580  0.34370  Biso   1.000  O
  O138     1.0000 0.60295  0.60735  0.28370  Biso   1.000  O
  C267     1.0000 0.58840  0.53610  0.24220  Biso   1.000  C
  H89      1.0000 0.58460  0.56060  0.22830  Biso   1.000  H
  C268     1.0000 0.53650  0.75430  0.30310  Biso   1.000  C
  C269     1.0000 0.57580  0.73190  0.30270  Biso   1.000  C
  O139     1.0000 0.57300  0.69320  0.30325  Biso   1.000  O
  O140     1.0000 0.60950  0.75050  0.30190  Biso   1.000  O
  C270     1.0000 0.53560  0.79780  0.30060  Biso   1.000  C
  H90      1.0000 0.56010  0.81210  0.30040  Biso   1.000  H
  Zn42     1.0000 0.37570  0.66432  0.70608  Biso   1.000  Zn
  C271     1.0000 0.40580  0.53710  0.71600  Biso   1.000  C
  C272     1.0000 0.39940  0.57710  0.69450  Biso   1.000  C
  O141     1.0000 0.39562  0.57580  0.65630  Biso   1.000  O
  O142     1.0000 0.39705  0.60735  0.71630  Biso   1.000  O
  C273     1.0000 0.41160  0.53610  0.75780  Biso   1.000  C
  H91      1.0000 0.41540  0.56060  0.77170  Biso   1.000  H
  C274     1.0000 0.46350  0.75430  0.69690  Biso   1.000  C
  C275     1.0000 0.42420  0.73190  0.69730  Biso   1.000  C
  O143     1.0000 0.42700  0.69320  0.69675  Biso   1.000  O
  O144     1.0000 0.39050  0.75050  0.69810  Biso   1.000  O
  C276     1.0000 0.46440  0.79780  0.69940  Biso   1.000  C
  H92      1.0000 0.43990  0.81210  0.69960  Biso   1.000  H
  Zn43     1.0000 0.62430  0.33568  0.70608  Biso   1.000  Zn
  C277     1.0000 0.59420  0.46290  0.71600  Biso   1.000  C
  C278     1.0000 0.60060  0.42290  0.69450  Biso   1.000  C
  O145     1.0000 0.60438  0.42420  0.65630  Biso   1.000  O
  O146     1.0000 0.60295  0.39265  0.71630  Biso   1.000  O
  C279     1.0000 0.58840  0.46390  0.75780  Biso   1.000  C
  H93      1.0000 0.58460  0.43940  0.77170  Biso   1.000  H
  C280     1.0000 0.53650  0.24570  0.69690  Biso   1.000  C
  C281     1.0000 0.57580  0.26810  0.69730  Biso   1.000  C
  O147     1.0000 0.57300  0.30680  0.69675  Biso   1.000  O
  O148     1.0000 0.60950  0.24950  0.69810  Biso   1.000  O
  C282     1.0000 0.53560  0.20220  0.69940  Biso   1.000  C
  H94      1.0000 0.56010  0.18790  0.69960  Biso   1.000  H
  Zn44     1.0000 0.37570  0.33568  0.29392  Biso   1.000  Zn
  C283     1.0000 0.40580  0.46290  0.28400  Biso   1.000  C
  C284     1.0000 0.39940  0.42290  0.30550  Biso   1.000  C
  O149     1.0000 0.39562  0.42420  0.34370  Biso   1.000  O
  O150     1.0000 0.39705  0.39265  0.28370  Biso   1.000  O
  C285     1.0000 0.41160  0.46390  0.24220  Biso   1.000  C
  H95      1.0000 0.41540  0.43940  0.22830  Biso   1.000  H
  C286     1.0000 0.46350  0.24570  0.30310  Biso   1.000  C
  C287     1.0000 0.42420  0.26810  0.30270  Biso   1.000  C
  O151     1.0000 0.42700  0.30680  0.30325  Biso   1.000  O
  O152     1.0000 0.39050  0.24950  0.30190  Biso   1.000  O
  C288     1.0000 0.46440  0.20220  0.30060  Biso   1.000  C
  H96      1.0000 0.43990  0.18790  0.30040  Biso   1.000  H
  Zn45     1.0000 0.70608  0.37570  0.33568  Biso   1.000  Zn
  C289     1.0000 0.71600  0.40580  0.46290  Biso   1.000  C
  C290     1.0000 0.69450  0.39940  0.42290  Biso   1.000  C
  O153     1.0000 0.65630  0.39562  0.42420  Biso   1.000  O
  O154     1.0000 0.71630  0.39705  0.39265  Biso   1.000  O
  C291     1.0000 0.75780  0.41160  0.46390  Biso   1.000  C
  H97      1.0000 0.77170  0.41540  0.43940  Biso   1.000  H
  C292     1.0000 0.69690  0.46350  0.24570  Biso   1.000  C
  C293     1.0000 0.69730  0.42420  0.26810  Biso   1.000  C
  O155     1.0000 0.69675  0.42700  0.30680  Biso   1.000  O
  O156     1.0000 0.69810  0.39050  0.24950  Biso   1.000  O
  C294     1.0000 0.69940  0.46440  0.20220  Biso   1.000  C
  H98      1.0000 0.69960  0.43990  0.18790  Biso   1.000  H
  Zn46     1.0000 0.29392  0.62430  0.33568  Biso   1.000  Zn
  C295     1.0000 0.28400  0.59420  0.46290  Biso   1.000  C
  C296     1.0000 0.30550  0.60060  0.42290  Biso   1.000  C
  O157     1.0000 0.34370  0.60438  0.42420  Biso   1.000  O
  O158     1.0000 0.28370  0.60295  0.39265  Biso   1.000  O
  C297     1.0000 0.24220  0.58840  0.46390  Biso   1.000  C
  H99      1.0000 0.22830  0.58460  0.43940  Biso   1.000  H
  C298     1.0000 0.30310  0.53650  0.24570  Biso   1.000  C
  C299     1.0000 0.30270  0.57580  0.26810  Biso   1.000  C
  O159     1.0000 0.30325  0.57300  0.30680  Biso   1.000  O
  O160     1.0000 0.30190  0.60950  0.24950  Biso   1.000  O
  C300     1.0000 0.30060  0.53560  0.20220  Biso   1.000  C
  H100     1.0000 0.30040  0.56010  0.18790  Biso   1.000  H
  Zn47     1.0000 0.29392  0.37570  0.66432  Biso   1.000  Zn
  C301     1.0000 0.28400  0.40580  0.53710  Biso   1.000  C
  C302     1.0000 0.30550  0.39940  0.57710  Biso   1.000  C
  O161     1.0000 0.34370  0.39562  0.57580  Biso   1.000  O
  O162     1.0000 0.28370  0.39705  0.60735  Biso   1.000  O
  C303     1.0000 0.24220  0.41160  0.53610  Biso   1.000  C
  H101     1.0000 0.22830  0.41540  0.56060  Biso   1.000  H
  C304     1.0000 0.30310  0.46350  0.75430  Biso   1.000  C
  C305     1.0000 0.30270  0.42420  0.73190  Biso   1.000  C
  O163     1.0000 0.30325  0.42700  0.69320  Biso   1.000  O
  O164     1.0000 0.30190  0.39050  0.75050  Biso   1.000  O
  C306     1.0000 0.30060  0.46440  0.79780  Biso   1.000  C
  H102     1.0000 0.30040  0.43990  0.81210  Biso   1.000  H
  Zn48     1.0000 0.70608  0.62430  0.66432  Biso   1.000  Zn
  C307     1.0000 0.71600  0.59420  0.53710  Biso   1.000  C
  C308     1.0000 0.69450  0.60060  0.57710  Biso   1.000  C
  O165     1.0000 0.65630  0.60438  0.57580  Biso   1.000  O
  O166     1.0000 0.71630  0.60295  0.60735  Biso   1.000  O
  C309     1.0000 0.75780  0.58840  0.53610  Biso   1.000  C
  H103     1.0000 0.77170  0.58460  0.56060  Biso   1.000  H
  C310     1.0000 0.69690  0.53650  0.75430  Biso   1.000  C
  C311     1.0000 0.69730  0.57580  0.73190  Biso   1.000  C
  O167     1.0000 0.69675  0.57300  0.69320  Biso   1.000  O
  O168     1.0000 0.69810  0.60950  0.75050  Biso   1.000  O
  C312     1.0000 0.69940  0.53560  0.79780  Biso   1.000  C
  H104     1.0000 0.69960  0.56010  0.81210  Biso   1.000  H
  Zn49     1.0000 0.33568  0.70608  0.37570  Biso   1.000  Zn
  C313     1.0000 0.46290  0.71600  0.40580  Biso   1.000  C
  C314     1.0000 0.42290  0.69450  0.39940  Biso   1.000  C
  O169     1.0000 0.42420  0.65630  0.39562  Biso   1.000  O
  O170     1.0000 0.39265  0.71630  0.39705  Biso   1.000  O
  C315     1.0000 0.46390  0.75780  0.41160  Biso   1.000  C
  H105     1.0000 0.43940  0.77170  0.41540  Biso   1.000  H
  C316     1.0000 0.24570  0.69690  0.46350  Biso   1.000  C
  C317     1.0000 0.26810  0.69730  0.42420  Biso   1.000  C
  O171     1.0000 0.30680  0.69675  0.42700  Biso   1.000  O
  O172     1.0000 0.24950  0.69810  0.39050  Biso   1.000  O
  C318     1.0000 0.20220  0.69940  0.46440  Biso   1.000  C
  H106     1.0000 0.18790  0.69960  0.43990  Biso   1.000  H
  Zn50     1.0000 0.33568  0.29392  0.62430  Biso   1.000  Zn
  C319     1.0000 0.46290  0.28400  0.59420  Biso   1.000  C
  C320     1.0000 0.42290  0.30550  0.60060  Biso   1.000  C
  O173     1.0000 0.42420  0.34370  0.60438  Biso   1.000  O
  O174     1.0000 0.39265  0.28370  0.60295  Biso   1.000  O
  C321     1.0000 0.46390  0.24220  0.58840  Biso   1.000  C
  H107     1.0000 0.43940  0.22830  0.58460  Biso   1.000  H
  C322     1.0000 0.24570  0.30310  0.53650  Biso   1.000  C
  C323     1.0000 0.26810  0.30270  0.57580  Biso   1.000  C
  O175     1.0000 0.30680  0.30325  0.57300  Biso   1.000  O
  O176     1.0000 0.24950  0.30190  0.60950  Biso   1.000  O
  C324     1.0000 0.20220  0.30060  0.53560  Biso   1.000  C
  H108     1.0000 0.18790  0.30040  0.56010  Biso   1.000  H
  Zn51     1.0000 0.66432  0.29392  0.37570  Biso   1.000  Zn
  C325     1.0000 0.53710  0.28400  0.40580  Biso   1.000  C
  C326     1.0000 0.57710  0.30550  0.39940  Biso   1.000  C
  O177     1.0000 0.57580  0.34370  0.39562  Biso   1.000  O
  O178     1.0000 0.60735  0.28370  0.39705  Biso   1.000  O
  C327     1.0000 0.53610  0.24220  0.41160  Biso   1.000  C
  H109     1.0000 0.56060  0.22830  0.41540  Biso   1.000  H
  C328     1.0000 0.75430  0.30310  0.46350  Biso   1.000  C
  C329     1.0000 0.73190  0.30270  0.42420  Biso   1.000  C
  O179     1.0000 0.69320  0.30325  0.42700  Biso   1.000  O
  O180     1.0000 0.75050  0.30190  0.39050  Biso   1.000  O
  C330     1.0000 0.79780  0.30060  0.46440  Biso   1.000  C
  H110     1.0000 0.81210  0.30040  0.43990  Biso   1.000  H
  Zn52     1.0000 0.66432  0.70608  0.62430  Biso   1.000  Zn
  C331     1.0000 0.53710  0.71600  0.59420  Biso   1.000  C
  C332     1.0000 0.57710  0.69450  0.60060  Biso   1.000  C
  O181     1.0000 0.57580  0.65630  0.60438  Biso   1.000  O
  O182     1.0000 0.60735  0.71630  0.60295  Biso   1.000  O
  C333     1.0000 0.53610  0.75780  0.58840  Biso   1.000  C
  H111     1.0000 0.56060  0.77170  0.58460  Biso   1.000  H
  C334     1.0000 0.75430  0.69690  0.53650  Biso   1.000  C
  C335     1.0000 0.73190  0.69730  0.57580  Biso   1.000  C
  O183     1.0000 0.69320  0.69675  0.57300  Biso   1.000  O
  O184     1.0000 0.75050  0.69810  0.60950  Biso   1.000  O
  C336     1.0000 0.79780  0.69940  0.53560  Biso   1.000  C
  H112     1.0000 0.81210  0.69960  0.56010  Biso   1.000  H
  Zn53     1.0000 0.37570  0.33568  0.70608  Biso   1.000  Zn
  C337     1.0000 0.40580  0.46290  0.71600  Biso   1.000  C
  C338     1.0000 0.39940  0.42290  0.69450  Biso   1.000  C
  O185     1.0000 0.39562  0.42420  0.65630  Biso   1.000  O
  O186     1.0000 0.39705  0.39265  0.71630  Biso   1.000  O
  C339     1.0000 0.41160  0.46390  0.75780  Biso   1.000  C
  H113     1.0000 0.41540  0.43940  0.77170  Biso   1.000  H
  C340     1.0000 0.46350  0.24570  0.69690  Biso   1.000  C
  C341     1.0000 0.42420  0.26810  0.69730  Biso   1.000  C
  O187     1.0000 0.42700  0.30680  0.69675  Biso   1.000  O
  O188     1.0000 0.39050  0.24950  0.69810  Biso   1.000  O
  C342     1.0000 0.46440  0.20220  0.69940  Biso   1.000  C
  H114     1.0000 0.43990  0.18790  0.69960  Biso   1.000  H
  Zn54     1.0000 0.62430  0.33568  0.29392  Biso   1.000  Zn
  C343     1.0000 0.59420  0.46290  0.28400  Biso   1.000  C
  C344     1.0000 0.60060  0.42290  0.30550  Biso   1.000  C
  O189     1.0000 0.60438  0.42420  0.34370  Biso   1.000  O
  O190     1.0000 0.60295  0.39265  0.28370  Biso   1.000  O
  C345     1.0000 0.58840  0.46390  0.24220  Biso   1.000  C
  H115     1.0000 0.58460  0.43940  0.22830  Biso   1.000  H
  C346     1.0000 0.53650  0.24570  0.30310  Biso   1.000  C
  C347     1.0000 0.57580  0.26810  0.30270  Biso   1.000  C
  O191     1.0000 0.57300  0.30680  0.30325  Biso   1.000  O
  O192     1.0000 0.60950  0.24950  0.30190  Biso   1.000  O
  C348     1.0000 0.53560  0.20220  0.30060  Biso   1.000  C
  H116     1.0000 0.56010  0.18790  0.30040  Biso   1.000  H
  Zn55     1.0000 0.37570  0.66432  0.29392  Biso   1.000  Zn
  C349     1.0000 0.40580  0.53710  0.28400  Biso   1.000  C
  C350     1.0000 0.39940  0.57710  0.30550  Biso   1.000  C
  O193     1.0000 0.39562  0.57580  0.34370  Biso   1.000  O
  O194     1.0000 0.39705  0.60735  0.28370  Biso   1.000  O
  C351     1.0000 0.41160  0.53610  0.24220  Biso   1.000  C
  H117     1.0000 0.41540  0.56060  0.22830  Biso   1.000  H
  C352     1.0000 0.46350  0.75430  0.30310  Biso   1.000  C
  C353     1.0000 0.42420  0.73190  0.30270  Biso   1.000  C
  O195     1.0000 0.42700  0.69320  0.30325  Biso   1.000  O
  O196     1.0000 0.39050  0.75050  0.30190  Biso   1.000  O
  C354     1.0000 0.46440  0.79780  0.30060  Biso   1.000  C
  H118     1.0000 0.43990  0.81210  0.30040  Biso   1.000  H
  Zn56     1.0000 0.62430  0.66432  0.70608  Biso   1.000  Zn
  C355     1.0000 0.59420  0.53710  0.71600  Biso   1.000  C
  C356     1.0000 0.60060  0.57710  0.69450  Biso   1.000  C
  O197     1.0000 0.60438  0.57580  0.65630  Biso   1.000  O
  O198     1.0000 0.60295  0.60735  0.71630  Biso   1.000  O
  C357     1.0000 0.58840  0.53610  0.75780  Biso   1.000  C
  H119     1.0000 0.58460  0.56060  0.77170  Biso   1.000  H
  C358     1.0000 0.53650  0.75430  0.69690  Biso   1.000  C
  C359     1.0000 0.57580  0.73190  0.69730  Biso   1.000  C
  O199     1.0000 0.57300  0.69320  0.69675  Biso   1.000  O
  O200     1.0000 0.60950  0.75050  0.69810  Biso   1.000  O
  C360     1.0000 0.53560  0.79780  0.69940  Biso   1.000  C
  H120     1.0000 0.56010  0.81210  0.69960  Biso   1.000  H
  Zn57     1.0000 0.37806  0.62194  0.62194  Biso   1.000  Zn
  O201     1.0000 0.34383  0.65617  0.65617  Biso   1.000  O
  Zn58     1.0000 0.62194  0.37806  0.62194  Biso   1.000  Zn
  O202     1.0000 0.65617  0.34383  0.65617  Biso   1.000  O
  Zn59     1.0000 0.62194  0.62194  0.37806  Biso   1.000  Zn
  O203     1.0000 0.65617  0.65617  0.34383  Biso   1.000  O
  Zn60     1.0000 0.37806  0.37806  0.37806  Biso   1.000  Zn
  O204     1.0000 0.34383  0.34383  0.34383  Biso   1.000  O
  Zn61     1.0000 0.62194  0.37806  0.37806  Biso   1.000  Zn
  O205     1.0000 0.65617  0.34383  0.34383  Biso   1.000  O
  Zn62     1.0000 0.37806  0.62194  0.37806  Biso   1.000  Zn
  O206     1.0000 0.34383  0.65617  0.34383  Biso   1.000  O
  Zn63     1.0000 0.37806  0.37806  0.62194  Biso   1.000  Zn
  O207     1.0000 0.34383  0.34383  0.65617  Biso   1.000  O
  Zn64     1.0000 0.62194  0.62194  0.62194  Biso   1.000  Zn
  O208     1.0000 0.65617  0.65617  0.65617  Biso   1.000  O
  C361     1.0000 0.30560  0.59760  0.50000  Biso   1.000  C
  H121     1.0000 0.33360  0.60200  0.50000  Biso   1.000  H
  C362     1.0000 0.22030  0.58800  0.50000  Biso   1.000  C
  C363     1.0000 0.17990  0.58470  0.50000  Biso   1.000  C
  N25      1.0000 0.14830  0.58180  0.50000  Biso   1.000  N
  C364     1.0000 0.69440  0.40240  0.50000  Biso   1.000  C
  H122     1.0000 0.66640  0.39800  0.50000  Biso   1.000  H
  C365     1.0000 0.77970  0.41200  0.50000  Biso   1.000  C
  C366     1.0000 0.82010  0.41530  0.50000  Biso   1.000  C
  N26      1.0000 0.85170  0.41820  0.50000  Biso   1.000  N
  C367     1.0000 0.69440  0.59760  0.50000  Biso   1.000  C
  H123     1.0000 0.66640  0.60200  0.50000  Biso   1.000  H
  C368     1.0000 0.77970  0.58800  0.50000  Biso   1.000  C
  C369     1.0000 0.82010  0.58470  0.50000  Biso   1.000  C
  N27      1.0000 0.85170  0.58180  0.50000  Biso   1.000  N
  C370     1.0000 0.30560  0.40240  0.50000  Biso   1.000  C
  H124     1.0000 0.33360  0.39800  0.50000  Biso   1.000  H
  C371     1.0000 0.22030  0.41200  0.50000  Biso   1.000  C
  C372     1.0000 0.17990  0.41530  0.50000  Biso   1.000  C
  N28      1.0000 0.14830  0.41820  0.50000  Biso   1.000  N
  C373     1.0000 0.50000  0.30560  0.59760  Biso   1.000  C
  H125     1.0000 0.50000  0.33360  0.60200  Biso   1.000  H
  C374     1.0000 0.50000  0.22030  0.58800  Biso   1.000  C
  C375     1.0000 0.50000  0.17990  0.58470  Biso   1.000  C
  N29      1.0000 0.50000  0.14830  0.58180  Biso   1.000  N
  C376     1.0000 0.50000  0.69440  0.40240  Biso   1.000  C
  H126     1.0000 0.50000  0.66640  0.39800  Biso   1.000  H
  C377     1.0000 0.50000  0.77970  0.41200  Biso   1.000  C
  C378     1.0000 0.50000  0.82010  0.41530  Biso   1.000  C
  N30      1.0000 0.50000  0.85170  0.41820  Biso   1.000  N
  C379     1.0000 0.50000  0.69440  0.59760  Biso   1.000  C
  H127     1.0000 0.50000  0.66640  0.60200  Biso   1.000  H
  C380     1.0000 0.50000  0.77970  0.58800  Biso   1.000  C
  C381     1.0000 0.50000  0.82010  0.58470  Biso   1.000  C
  N31      1.0000 0.50000  0.85170  0.58180  Biso   1.000  N
  C382     1.0000 0.50000  0.30560  0.40240  Biso   1.000  C
  H128     1.0000 0.50000  0.33360  0.39800  Biso   1.000  H
  C383     1.0000 0.50000  0.22030  0.41200  Biso   1.000  C
  C384     1.0000 0.50000  0.17990  0.41530  Biso   1.000  C
  N32      1.0000 0.50000  0.14830  0.41820  Biso   1.000  N
  C385     1.0000 0.59760  0.50000  0.30560  Biso   1.000  C
  H129     1.0000 0.60200  0.50000  0.33360  Biso   1.000  H
  C386     1.0000 0.58800  0.50000  0.22030  Biso   1.000  C
  C387     1.0000 0.58470  0.50000  0.17990  Biso   1.000  C
  N33      1.0000 0.58180  0.50000  0.14830  Biso   1.000  N
  C388     1.0000 0.40240  0.50000  0.69440  Biso   1.000  C
  H130     1.0000 0.39800  0.50000  0.66640  Biso   1.000  H
  C389     1.0000 0.41200  0.50000  0.77970  Biso   1.000  C
  C390     1.0000 0.41530  0.50000  0.82010  Biso   1.000  C
  N34      1.0000 0.41820  0.50000  0.85170  Biso   1.000  N
  C391     1.0000 0.59760  0.50000  0.69440  Biso   1.000  C
  H131     1.0000 0.60200  0.50000  0.66640  Biso   1.000  H
  C392     1.0000 0.58800  0.50000  0.77970  Biso   1.000  C
  C393     1.0000 0.58470  0.50000  0.82010  Biso   1.000  C
  N35      1.0000 0.58180  0.50000  0.85170  Biso   1.000  N
  C394     1.0000 0.40240  0.50000  0.30560  Biso   1.000  C
  H132     1.0000 0.39800  0.50000  0.33360  Biso   1.000  H
  C395     1.0000 0.41200  0.50000  0.22030  Biso   1.000  C
  C396     1.0000 0.41530  0.50000  0.17990  Biso   1.000  C
  N36      1.0000 0.41820  0.50000  0.14830  Biso   1.000  N
  C397     1.0000 0.30340  0.50000  0.73390  Biso   1.000  C
  H133     1.0000 0.30370  0.50000  0.70550  Biso   1.000  H
  C398     1.0000 0.29840  0.50000  0.81900  Biso   1.000  C
  C399     1.0000 0.29620  0.50000  0.86330  Biso   1.000  C
  N37      1.0000 0.29270  0.50000  0.89770  Biso   1.000  N
  C400     1.0000 0.69660  0.50000  0.73390  Biso   1.000  C
  H134     1.0000 0.69630  0.50000  0.70550  Biso   1.000  H
  C401     1.0000 0.70160  0.50000  0.81900  Biso   1.000  C
  C402     1.0000 0.70380  0.50000  0.86330  Biso   1.000  C
  N38      1.0000 0.70730  0.50000  0.89770  Biso   1.000  N
  C403     1.0000 0.69660  0.50000  0.26610  Biso   1.000  C
  H135     1.0000 0.69630  0.50000  0.29450  Biso   1.000  H
  C404     1.0000 0.70160  0.50000  0.18100  Biso   1.000  C
  C405     1.0000 0.70380  0.50000  0.13670  Biso   1.000  C
  N39      1.0000 0.70730  0.50000  0.10230  Biso   1.000  N
  C406     1.0000 0.30340  0.50000  0.26610  Biso   1.000  C
  H136     1.0000 0.30370  0.50000  0.29450  Biso   1.000  H
  C407     1.0000 0.29840  0.50000  0.18100  Biso   1.000  C
  C408     1.0000 0.29620  0.50000  0.13670  Biso   1.000  C
  N40      1.0000 0.29270  0.50000  0.10230  Biso   1.000  N
  C409     1.0000 0.73390  0.30340  0.50000  Biso   1.000  C
  H137     1.0000 0.70550  0.30370  0.50000  Biso   1.000  H
  C410     1.0000 0.81900  0.29840  0.50000  Biso   1.000  C
  C411     1.0000 0.86330  0.29620  0.50000  Biso   1.000  C
  N41      1.0000 0.89770  0.29270  0.50000  Biso   1.000  N
  C412     1.0000 0.73390  0.69660  0.50000  Biso   1.000  C
  H138     1.0000 0.70550  0.69630  0.50000  Biso   1.000  H
  C413     1.0000 0.81900  0.70160  0.50000  Biso   1.000  C
  C414     1.0000 0.86330  0.70380  0.50000  Biso   1.000  C
  N42      1.0000 0.89770  0.70730  0.50000  Biso   1.000  N
  C415     1.0000 0.26610  0.69660  0.50000  Biso   1.000  C
  H139     1.0000 0.29450  0.69630  0.50000  Biso   1.000  H
  C416     1.0000 0.18100  0.70160  0.50000  Biso   1.000  C
  C417     1.0000 0.13670  0.70380  0.50000  Biso   1.000  C
  N43      1.0000 0.10230  0.70730  0.50000  Biso   1.000  N
  C418     1.0000 0.26610  0.30340  0.50000  Biso   1.000  C
  H140     1.0000 0.29450  0.30370  0.50000  Biso   1.000  H
  C419     1.0000 0.18100  0.29840  0.50000  Biso   1.000  C
  C420     1.0000 0.13670  0.29620  0.50000  Biso   1.000  C
  N44      1.0000 0.10230  0.29270  0.50000  Biso   1.000  N
  C421     1.0000 0.50000  0.73390  0.30340  Biso   1.000  C
  H141     1.0000 0.50000  0.70550  0.30370  Biso   1.000  H
  C422     1.0000 0.50000  0.81900  0.29840  Biso   1.000  C
  C423     1.0000 0.50000  0.86330  0.29620  Biso   1.000  C
  N45      1.0000 0.50000  0.89770  0.29270  Biso   1.000  N
  C424     1.0000 0.50000  0.73390  0.69660  Biso   1.000  C
  H142     1.0000 0.50000  0.70550  0.69630  Biso   1.000  H
  C425     1.0000 0.50000  0.81900  0.70160  Biso   1.000  C
  C426     1.0000 0.50000  0.86330  0.70380  Biso   1.000  C
  N46      1.0000 0.50000  0.89770  0.70730  Biso   1.000  N
  C427     1.0000 0.50000  0.26610  0.69660  Biso   1.000  C
  H143     1.0000 0.50000  0.29450  0.69630  Biso   1.000  H
  C428     1.0000 0.50000  0.18100  0.70160  Biso   1.000  C
  C429     1.0000 0.50000  0.13670  0.70380  Biso   1.000  C
  N47      1.0000 0.50000  0.10230  0.70730  Biso   1.000  N
  C430     1.0000 0.50000  0.26610  0.30340  Biso   1.000  C
  H144     1.0000 0.50000  0.29450  0.30370  Biso   1.000  H
  C431     1.0000 0.50000  0.18100  0.29840  Biso   1.000  C
  C432     1.0000 0.50000  0.13670  0.29620  Biso   1.000  C
  N48      1.0000 0.50000  0.10230  0.29270  Biso   1.000  N
  Zn65     1.0000 0.79392  0.12430  0.66432  Biso   1.000  Zn
  C433     1.0000 0.78400  0.09420  0.53710  Biso   1.000  C
  C434     1.0000 0.80550  0.10060  0.57710  Biso   1.000  C
  O209     1.0000 0.84370  0.10438  0.57580  Biso   1.000  O
  O210     1.0000 0.78370  0.10295  0.60735  Biso   1.000  O
  C435     1.0000 0.74220  0.08840  0.53610  Biso   1.000  C
  H145     1.0000 0.72830  0.08460  0.56060  Biso   1.000  H
  C436     1.0000 0.80310  0.03650  0.75430  Biso   1.000  C
  C437     1.0000 0.80270  0.07580  0.73190  Biso   1.000  C
  O211     1.0000 0.80325  0.07300  0.69320  Biso   1.000  O
  O212     1.0000 0.80190  0.10950  0.75050  Biso   1.000  O
  C438     1.0000 0.80060  0.03560  0.79780  Biso   1.000  C
  H146     1.0000 0.80040  0.06010  0.81210  Biso   1.000  H
  Zn66     1.0000 0.20608  0.87570  0.66432  Biso   1.000  Zn
  C439     1.0000 0.21600  0.90580  0.53710  Biso   1.000  C
  C440     1.0000 0.19450  0.89940  0.57710  Biso   1.000  C
  O213     1.0000 0.15630  0.89562  0.57580  Biso   1.000  O
  O214     1.0000 0.21630  0.89705  0.60735  Biso   1.000  O
  C441     1.0000 0.25780  0.91160  0.53610  Biso   1.000  C
  H147     1.0000 0.27170  0.91540  0.56060  Biso   1.000  H
  C442     1.0000 0.19690  0.96350  0.75430  Biso   1.000  C
  C443     1.0000 0.19730  0.92420  0.73190  Biso   1.000  C
  O215     1.0000 0.19675  0.92700  0.69320  Biso   1.000  O
  O216     1.0000 0.19810  0.89050  0.75050  Biso   1.000  O
  C444     1.0000 0.19940  0.96440  0.79780  Biso   1.000  C
  H148     1.0000 0.19960  0.93990  0.81210  Biso   1.000  H
  Zn67     1.0000 0.20608  0.12430  0.33568  Biso   1.000  Zn
  C445     1.0000 0.21600  0.09420  0.46290  Biso   1.000  C
  C446     1.0000 0.19450  0.10060  0.42290  Biso   1.000  C
  O217     1.0000 0.15630  0.10438  0.42420  Biso   1.000  O
  O218     1.0000 0.21630  0.10295  0.39265  Biso   1.000  O
  C447     1.0000 0.25780  0.08840  0.46390  Biso   1.000  C
  H149     1.0000 0.27170  0.08460  0.43940  Biso   1.000  H
  C448     1.0000 0.19690  0.03650  0.24570  Biso   1.000  C
  C449     1.0000 0.19730  0.07580  0.26810  Biso   1.000  C
  O219     1.0000 0.19675  0.07300  0.30680  Biso   1.000  O
  O220     1.0000 0.19810  0.10950  0.24950  Biso   1.000  O
  C450     1.0000 0.19940  0.03560  0.20220  Biso   1.000  C
  H150     1.0000 0.19960  0.06010  0.18790  Biso   1.000  H
  Zn68     1.0000 0.79392  0.87570  0.33568  Biso   1.000  Zn
  C451     1.0000 0.78400  0.90580  0.46290  Biso   1.000  C
  C452     1.0000 0.80550  0.89940  0.42290  Biso   1.000  C
  O221     1.0000 0.84370  0.89562  0.42420  Biso   1.000  O
  O222     1.0000 0.78370  0.89705  0.39265  Biso   1.000  O
  C453     1.0000 0.74220  0.91160  0.46390  Biso   1.000  C
  H151     1.0000 0.72830  0.91540  0.43940  Biso   1.000  H
  C454     1.0000 0.80310  0.96350  0.24570  Biso   1.000  C
  C455     1.0000 0.80270  0.92420  0.26810  Biso   1.000  C
  O223     1.0000 0.80325  0.92700  0.30680  Biso   1.000  O
  O224     1.0000 0.80190  0.89050  0.24950  Biso   1.000  O
  C456     1.0000 0.80060  0.96440  0.20220  Biso   1.000  C
  H152     1.0000 0.80040  0.93990  0.18790  Biso   1.000  H
  Zn69     1.0000 0.16432  0.79392  0.62430  Biso   1.000  Zn
  C457     1.0000 0.03710  0.78400  0.59420  Biso   1.000  C
  C458     1.0000 0.07710  0.80550  0.60060  Biso   1.000  C
  O225     1.0000 0.07580  0.84370  0.60438  Biso   1.000  O
  O226     1.0000 0.10735  0.78370  0.60295  Biso   1.000  O
  C459     1.0000 0.03610  0.74220  0.58840  Biso   1.000  C
  H153     1.0000 0.06060  0.72830  0.58460  Biso   1.000  H
  C460     1.0000 0.25430  0.80310  0.53650  Biso   1.000  C
  C461     1.0000 0.23190  0.80270  0.57580  Biso   1.000  C
  O227     1.0000 0.19320  0.80325  0.57300  Biso   1.000  O
  O228     1.0000 0.25050  0.80190  0.60950  Biso   1.000  O
  C462     1.0000 0.29780  0.80060  0.53560  Biso   1.000  C
  H154     1.0000 0.31210  0.80040  0.56010  Biso   1.000  H
  Zn70     1.0000 0.16432  0.20608  0.37570  Biso   1.000  Zn
  C463     1.0000 0.03710  0.21600  0.40580  Biso   1.000  C
  C464     1.0000 0.07710  0.19450  0.39940  Biso   1.000  C
  O229     1.0000 0.07580  0.15630  0.39562  Biso   1.000  O
  O230     1.0000 0.10735  0.21630  0.39705  Biso   1.000  O
  C465     1.0000 0.03610  0.25780  0.41160  Biso   1.000  C
  H155     1.0000 0.06060  0.27170  0.41540  Biso   1.000  H
  C466     1.0000 0.25430  0.19690  0.46350  Biso   1.000  C
  C467     1.0000 0.23190  0.19730  0.42420  Biso   1.000  C
  O231     1.0000 0.19320  0.19675  0.42700  Biso   1.000  O
  O232     1.0000 0.25050  0.19810  0.39050  Biso   1.000  O
  C468     1.0000 0.29780  0.19940  0.46440  Biso   1.000  C
  H156     1.0000 0.31210  0.19960  0.43990  Biso   1.000  H
  Zn71     1.0000 0.83568  0.20608  0.62430  Biso   1.000  Zn
  C469     1.0000 0.96290  0.21600  0.59420  Biso   1.000  C
  C470     1.0000 0.92290  0.19450  0.60060  Biso   1.000  C
  O233     1.0000 0.92420  0.15630  0.60438  Biso   1.000  O
  O234     1.0000 0.89265  0.21630  0.60295  Biso   1.000  O
  C471     1.0000 0.96390  0.25780  0.58840  Biso   1.000  C
  H157     1.0000 0.93940  0.27170  0.58460  Biso   1.000  H
  C472     1.0000 0.74570  0.19690  0.53650  Biso   1.000  C
  C473     1.0000 0.76810  0.19730  0.57580  Biso   1.000  C
  O235     1.0000 0.80680  0.19675  0.57300  Biso   1.000  O
  O236     1.0000 0.74950  0.19810  0.60950  Biso   1.000  O
  C474     1.0000 0.70220  0.19940  0.53560  Biso   1.000  C
  H158     1.0000 0.68790  0.19960  0.56010  Biso   1.000  H
  Zn72     1.0000 0.83568  0.79392  0.37570  Biso   1.000  Zn
  C475     1.0000 0.96290  0.78400  0.40580  Biso   1.000  C
  C476     1.0000 0.92290  0.80550  0.39940  Biso   1.000  C
  O237     1.0000 0.92420  0.84370  0.39562  Biso   1.000  O
  O238     1.0000 0.89265  0.78370  0.39705  Biso   1.000  O
  C477     1.0000 0.96390  0.74220  0.41160  Biso   1.000  C
  H159     1.0000 0.93940  0.72830  0.41540  Biso   1.000  H
  C478     1.0000 0.74570  0.80310  0.46350  Biso   1.000  C
  C479     1.0000 0.76810  0.80270  0.42420  Biso   1.000  C
  O239     1.0000 0.80680  0.80325  0.42700  Biso   1.000  O
  O240     1.0000 0.74950  0.80190  0.39050  Biso   1.000  O
  C480     1.0000 0.70220  0.80060  0.46440  Biso   1.000  C
  H160     1.0000 0.68790  0.80040  0.43990  Biso   1.000  H
  Zn73     1.0000 0.12430  0.16432  0.29392  Biso   1.000  Zn
  C481     1.0000 0.09420  0.03710  0.28400  Biso   1.000  C
  C482     1.0000 0.10060  0.07710  0.30550  Biso   1.000  C
  O241     1.0000 0.10438  0.07580  0.34370  Biso   1.000  O
  O242     1.0000 0.10295  0.10735  0.28370  Biso   1.000  O
  C483     1.0000 0.08840  0.03610  0.24220  Biso   1.000  C
  H161     1.0000 0.08460  0.06060  0.22830  Biso   1.000  H
  C484     1.0000 0.03650  0.25430  0.30310  Biso   1.000  C
  C485     1.0000 0.07580  0.23190  0.30270  Biso   1.000  C
  O243     1.0000 0.07300  0.19320  0.30325  Biso   1.000  O
  O244     1.0000 0.10950  0.25050  0.30190  Biso   1.000  O
  C486     1.0000 0.03560  0.29780  0.30060  Biso   1.000  C
  H162     1.0000 0.06010  0.31210  0.30040  Biso   1.000  H
  Zn74     1.0000 0.87570  0.16432  0.70608  Biso   1.000  Zn
  C487     1.0000 0.90580  0.03710  0.71600  Biso   1.000  C
  C488     1.0000 0.89940  0.07710  0.69450  Biso   1.000  C
  O245     1.0000 0.89562  0.07580  0.65630  Biso   1.000  O
  O246     1.0000 0.89705  0.10735  0.71630  Biso   1.000  O
  C489     1.0000 0.91160  0.03610  0.75780  Biso   1.000  C
  H163     1.0000 0.91540  0.06060  0.77170  Biso   1.000  H
  C490     1.0000 0.96350  0.25430  0.69690  Biso   1.000  C
  C491     1.0000 0.92420  0.23190  0.69730  Biso   1.000  C
  O247     1.0000 0.92700  0.19320  0.69675  Biso   1.000  O
  O248     1.0000 0.89050  0.25050  0.69810  Biso   1.000  O
  C492     1.0000 0.96440  0.29780  0.69940  Biso   1.000  C
  H164     1.0000 0.93990  0.31210  0.69960  Biso   1.000  H
  Zn75     1.0000 0.12430  0.83568  0.70608  Biso   1.000  Zn
  C493     1.0000 0.09420  0.96290  0.71600  Biso   1.000  C
  C494     1.0000 0.10060  0.92290  0.69450  Biso   1.000  C
  O249     1.0000 0.10438  0.92420  0.65630  Biso   1.000  O
  O250     1.0000 0.10295  0.89265  0.71630  Biso   1.000  O
  C495     1.0000 0.08840  0.96390  0.75780  Biso   1.000  C
  H165     1.0000 0.08460  0.93940  0.77170  Biso   1.000  H
  C496     1.0000 0.03650  0.74570  0.69690  Biso   1.000  C
  C497     1.0000 0.07580  0.76810  0.69730  Biso   1.000  C
  O251     1.0000 0.07300  0.80680  0.69675  Biso   1.000  O
  O252     1.0000 0.10950  0.74950  0.69810  Biso   1.000  O
  C498     1.0000 0.03560  0.70220  0.69940  Biso   1.000  C
  H166     1.0000 0.06010  0.68790  0.69960  Biso   1.000  H
  Zn76     1.0000 0.87570  0.83568  0.29392  Biso   1.000  Zn
  C499     1.0000 0.90580  0.96290  0.28400  Biso   1.000  C
  C500     1.0000 0.89940  0.92290  0.30550  Biso   1.000  C
  O253     1.0000 0.89562  0.92420  0.34370  Biso   1.000  O
  O254     1.0000 0.89705  0.89265  0.28370  Biso   1.000  O
  C501     1.0000 0.91160  0.96390  0.24220  Biso   1.000  C
  H167     1.0000 0.91540  0.93940  0.22830  Biso   1.000  H
  C502     1.0000 0.96350  0.74570  0.30310  Biso   1.000  C
  C503     1.0000 0.92420  0.76810  0.30270  Biso   1.000  C
  O255     1.0000 0.92700  0.80680  0.30325  Biso   1.000  O
  O256     1.0000 0.89050  0.74950  0.30190  Biso   1.000  O
  C504     1.0000 0.96440  0.70220  0.30060  Biso   1.000  C
  H168     1.0000 0.93990  0.68790  0.30040  Biso   1.000  H
  Zn77     1.0000 0.20608  0.87570  0.33568  Biso   1.000  Zn
  C505     1.0000 0.21600  0.90580  0.46290  Biso   1.000  C
  C506     1.0000 0.19450  0.89940  0.42290  Biso   1.000  C
  O257     1.0000 0.15630  0.89562  0.42420  Biso   1.000  O
  O258     1.0000 0.21630  0.89705  0.39265  Biso   1.000  O
  C507     1.0000 0.25780  0.91160  0.46390  Biso   1.000  C
  H169     1.0000 0.27170  0.91540  0.43940  Biso   1.000  H
  C508     1.0000 0.19690  0.96350  0.24570  Biso   1.000  C
  C509     1.0000 0.19730  0.92420  0.26810  Biso   1.000  C
  O259     1.0000 0.19675  0.92700  0.30680  Biso   1.000  O
  O260     1.0000 0.19810  0.89050  0.24950  Biso   1.000  O
  C510     1.0000 0.19940  0.96440  0.20220  Biso   1.000  C
  H170     1.0000 0.19960  0.93990  0.18790  Biso   1.000  H
  Zn78     1.0000 0.79392  0.12430  0.33568  Biso   1.000  Zn
  C511     1.0000 0.78400  0.09420  0.46290  Biso   1.000  C
  C512     1.0000 0.80550  0.10060  0.42290  Biso   1.000  C
  O261     1.0000 0.84370  0.10438  0.42420  Biso   1.000  O
  O262     1.0000 0.78370  0.10295  0.39265  Biso   1.000  O
  C513     1.0000 0.74220  0.08840  0.46390  Biso   1.000  C
  H171     1.0000 0.72830  0.08460  0.43940  Biso   1.000  H
  C514     1.0000 0.80310  0.03650  0.24570  Biso   1.000  C
  C515     1.0000 0.80270  0.07580  0.26810  Biso   1.000  C
  O263     1.0000 0.80325  0.07300  0.30680  Biso   1.000  O
  O264     1.0000 0.80190  0.10950  0.24950  Biso   1.000  O
  C516     1.0000 0.80060  0.03560  0.20220  Biso   1.000  C
  H172     1.0000 0.80040  0.06010  0.18790  Biso   1.000  H
  Zn79     1.0000 0.79392  0.87570  0.66432  Biso   1.000  Zn
  C517     1.0000 0.78400  0.90580  0.53710  Biso   1.000  C
  C518     1.0000 0.80550  0.89940  0.57710  Biso   1.000  C
  O265     1.0000 0.84370  0.89562  0.57580  Biso   1.000  O
  O266     1.0000 0.78370  0.89705  0.60735  Biso   1.000  O
  C519     1.0000 0.74220  0.91160  0.53610  Biso   1.000  C
  H173     1.0000 0.72830  0.91540  0.56060  Biso   1.000  H
  C520     1.0000 0.80310  0.96350  0.75430  Biso   1.000  C
  C521     1.0000 0.80270  0.92420  0.73190  Biso   1.000  C
  O267     1.0000 0.80325  0.92700  0.69320  Biso   1.000  O
  O268     1.0000 0.80190  0.89050  0.75050  Biso   1.000  O
  C522     1.0000 0.80060  0.96440  0.79780  Biso   1.000  C
  H174     1.0000 0.80040  0.93990  0.81210  Biso   1.000  H
  Zn80     1.0000 0.20608  0.12430  0.66432  Biso   1.000  Zn
  C523     1.0000 0.21600  0.09420  0.53710  Biso   1.000  C
  C524     1.0000 0.19450  0.10060  0.57710  Biso   1.000  C
  O269     1.0000 0.15630  0.10438  0.57580  Biso   1.000  O
  O270     1.0000 0.21630  0.10295  0.60735  Biso   1.000  O
  C525     1.0000 0.25780  0.08840  0.53610  Biso   1.000  C
  H175     1.0000 0.27170  0.08460  0.56060  Biso   1.000  H
  C526     1.0000 0.19690  0.03650  0.75430  Biso   1.000  C
  C527     1.0000 0.19730  0.07580  0.73190  Biso   1.000  C
  O271     1.0000 0.19675  0.07300  0.69320  Biso   1.000  O
  O272     1.0000 0.19810  0.10950  0.75050  Biso   1.000  O
  C528     1.0000 0.19940  0.03560  0.79780  Biso   1.000  C
  H176     1.0000 0.19960  0.06010  0.81210  Biso   1.000  H
  Zn81     1.0000 0.83568  0.20608  0.37570  Biso   1.000  Zn
  C529     1.0000 0.96290  0.21600  0.40580  Biso   1.000  C
  C530     1.0000 0.92290  0.19450  0.39940  Biso   1.000  C
  O273     1.0000 0.92420  0.15630  0.39562  Biso   1.000  O
  O274     1.0000 0.89265  0.21630  0.39705  Biso   1.000  O
  C531     1.0000 0.96390  0.25780  0.41160  Biso   1.000  C
  H177     1.0000 0.93940  0.27170  0.41540  Biso   1.000  H
  C532     1.0000 0.74570  0.19690  0.46350  Biso   1.000  C
  C533     1.0000 0.76810  0.19730  0.42420  Biso   1.000  C
  O275     1.0000 0.80680  0.19675  0.42700  Biso   1.000  O
  O276     1.0000 0.74950  0.19810  0.39050  Biso   1.000  O
  C534     1.0000 0.70220  0.19940  0.46440  Biso   1.000  C
  H178     1.0000 0.68790  0.19960  0.43990  Biso   1.000  H
  Zn82     1.0000 0.83568  0.79392  0.62430  Biso   1.000  Zn
  C535     1.0000 0.96290  0.78400  0.59420  Biso   1.000  C
  C536     1.0000 0.92290  0.80550  0.60060  Biso   1.000  C
  O277     1.0000 0.92420  0.84370  0.60438  Biso   1.000  O
  O278     1.0000 0.89265  0.78370  0.60295  Biso   1.000  O
  C537     1.0000 0.96390  0.74220  0.58840  Biso   1.000  C
  H179     1.0000 0.93940  0.72830  0.58460  Biso   1.000  H
  C538     1.0000 0.74570  0.80310  0.53650  Biso   1.000  C
  C539     1.0000 0.76810  0.80270  0.57580  Biso   1.000  C
  O279     1.0000 0.80680  0.80325  0.57300  Biso   1.000  O
  O280     1.0000 0.74950  0.80190  0.60950  Biso   1.000  O
  C540     1.0000 0.70220  0.80060  0.53560  Biso   1.000  C
  H180     1.0000 0.68790  0.80040  0.56010  Biso   1.000  H
  Zn83     1.0000 0.16432  0.79392  0.37570  Biso   1.000  Zn
  C541     1.0000 0.03710  0.78400  0.40580  Biso   1.000  C
  C542     1.0000 0.07710  0.80550  0.39940  Biso   1.000  C
  O281     1.0000 0.07580  0.84370  0.39562  Biso   1.000  O
  O282     1.0000 0.10735  0.78370  0.39705  Biso   1.000  O
  C543     1.0000 0.03610  0.74220  0.41160  Biso   1.000  C
  H181     1.0000 0.06060  0.72830  0.41540  Biso   1.000  H
  C544     1.0000 0.25430  0.80310  0.46350  Biso   1.000  C
  C545     1.0000 0.23190  0.80270  0.42420  Biso   1.000  C
  O283     1.0000 0.19320  0.80325  0.42700  Biso   1.000  O
  O284     1.0000 0.25050  0.80190  0.39050  Biso   1.000  O
  C546     1.0000 0.29780  0.80060  0.46440  Biso   1.000  C
  H182     1.0000 0.31210  0.80040  0.43990  Biso   1.000  H
  Zn84     1.0000 0.16432  0.20608  0.62430  Biso   1.000  Zn
  C547     1.0000 0.03710  0.21600  0.59420  Biso   1.000  C
  C548     1.0000 0.07710  0.19450  0.60060  Biso   1.000  C
  O285     1.0000 0.07580  0.15630  0.60438  Biso   1.000  O
  O286     1.0000 0.10735  0.21630  0.60295  Biso   1.000  O
  C549     1.0000 0.03610  0.25780  0.58840  Biso   1.000  C
  H183     1.0000 0.06060  0.27170  0.58460  Biso   1.000  H
  C550     1.0000 0.25430  0.19690  0.53650  Biso   1.000  C
  C551     1.0000 0.23190  0.19730  0.57580  Biso   1.000  C
  O287     1.0000 0.19320  0.19675  0.57300  Biso   1.000  O
  O288     1.0000 0.25050  0.19810  0.60950  Biso   1.000  O
  C552     1.0000 0.29780  0.19940  0.53560  Biso   1.000  C
  H184     1.0000 0.31210  0.19960  0.56010  Biso   1.000  H
  Zn85     1.0000 0.87570  0.83568  0.70608  Biso   1.000  Zn
  C553     1.0000 0.90580  0.96290  0.71600  Biso   1.000  C
  C554     1.0000 0.89940  0.92290  0.69450  Biso   1.000  C
  O289     1.0000 0.89562  0.92420  0.65630  Biso   1.000  O
  O290     1.0000 0.89705  0.89265  0.71630  Biso   1.000  O
  C555     1.0000 0.91160  0.96390  0.75780  Biso   1.000  C
  H185     1.0000 0.91540  0.93940  0.77170  Biso   1.000  H
  C556     1.0000 0.96350  0.74570  0.69690  Biso   1.000  C
  C557     1.0000 0.92420  0.76810  0.69730  Biso   1.000  C
  O291     1.0000 0.92700  0.80680  0.69675  Biso   1.000  O
  O292     1.0000 0.89050  0.74950  0.69810  Biso   1.000  O
  C558     1.0000 0.96440  0.70220  0.69940  Biso   1.000  C
  H186     1.0000 0.93990  0.68790  0.69960  Biso   1.000  H
  Zn86     1.0000 0.12430  0.83568  0.29392  Biso   1.000  Zn
  C559     1.0000 0.09420  0.96290  0.28400  Biso   1.000  C
  C560     1.0000 0.10060  0.92290  0.30550  Biso   1.000  C
  O293     1.0000 0.10438  0.92420  0.34370  Biso   1.000  O
  O294     1.0000 0.10295  0.89265  0.28370  Biso   1.000  O
  C561     1.0000 0.08840  0.96390  0.24220  Biso   1.000  C
  H187     1.0000 0.08460  0.93940  0.22830  Biso   1.000  H
  C562     1.0000 0.03650  0.74570  0.30310  Biso   1.000  C
  C563     1.0000 0.07580  0.76810  0.30270  Biso   1.000  C
  O295     1.0000 0.07300  0.80680  0.30325  Biso   1.000  O
  O296     1.0000 0.10950  0.74950  0.30190  Biso   1.000  O
  C564     1.0000 0.03560  0.70220  0.30060  Biso   1.000  C
  H188     1.0000 0.06010  0.68790  0.30040  Biso   1.000  H
  Zn87     1.0000 0.87570  0.16432  0.29392  Biso   1.000  Zn
  C565     1.0000 0.90580  0.03710  0.28400  Biso   1.000  C
  C566     1.0000 0.89940  0.07710  0.30550  Biso   1.000  C
  O297     1.0000 0.89562  0.07580  0.34370  Biso   1.000  O
  O298     1.0000 0.89705  0.10735  0.28370  Biso   1.000  O
  C567     1.0000 0.91160  0.03610  0.24220  Biso   1.000  C
  H189     1.0000 0.91540  0.06060  0.22830  Biso   1.000  H
  C568     1.0000 0.96350  0.25430  0.30310  Biso   1.000  C
  C569     1.0000 0.92420  0.23190  0.30270  Biso   1.000  C
  O299     1.0000 0.92700  0.19320  0.30325  Biso   1.000  O
  O300     1.0000 0.89050  0.25050  0.30190  Biso   1.000  O
  C570     1.0000 0.96440  0.29780  0.30060  Biso   1.000  C
  H190     1.0000 0.93990  0.31210  0.30040  Biso   1.000  H
  Zn88     1.0000 0.12430  0.16432  0.70608  Biso   1.000  Zn
  C571     1.0000 0.09420  0.03710  0.71600  Biso   1.000  C
  C572     1.0000 0.10060  0.07710  0.69450  Biso   1.000  C
  O301     1.0000 0.10438  0.07580  0.65630  Biso   1.000  O
  O302     1.0000 0.10295  0.10735  0.71630  Biso   1.000  O
  C573     1.0000 0.08840  0.03610  0.75780  Biso   1.000  C
  H191     1.0000 0.08460  0.06060  0.77170  Biso   1.000  H
  C574     1.0000 0.03650  0.25430  0.69690  Biso   1.000  C
  C575     1.0000 0.07580  0.23190  0.69730  Biso   1.000  C
  O303     1.0000 0.07300  0.19320  0.69675  Biso   1.000  O
  O304     1.0000 0.10950  0.25050  0.69810  Biso   1.000  O
  C576     1.0000 0.03560  0.29780  0.69940  Biso   1.000  C
  H192     1.0000 0.06010  0.31210  0.69960  Biso   1.000  H
  Zn89     1.0000 0.12194  0.12194  0.37806  Biso   1.000  Zn
  O305     1.0000 0.15617  0.15617  0.34383  Biso   1.000  O
  Zn90     1.0000 0.87806  0.12194  0.62194  Biso   1.000  Zn
  O306     1.0000 0.84383  0.15617  0.65617  Biso   1.000  O
  Zn91     1.0000 0.12194  0.87806  0.62194  Biso   1.000  Zn
  O307     1.0000 0.15617  0.84383  0.65617  Biso   1.000  O
  Zn92     1.0000 0.87806  0.87806  0.37806  Biso   1.000  Zn
  O308     1.0000 0.84383  0.84383  0.34383  Biso   1.000  O
  Zn93     1.0000 0.12194  0.87806  0.37806  Biso   1.000  Zn
  O309     1.0000 0.15617  0.84383  0.34383  Biso   1.000  O
  Zn94     1.0000 0.87806  0.12194  0.37806  Biso   1.000  Zn
  O310     1.0000 0.84383  0.15617  0.34383  Biso   1.000  O
  Zn95     1.0000 0.87806  0.87806  0.62194  Biso   1.000  Zn
  O311     1.0000 0.84383  0.84383  0.65617  Biso   1.000  O
  Zn96     1.0000 0.12194  0.12194  0.62194  Biso   1.000  Zn
  O312     1.0000 0.15617  0.15617  0.65617  Biso   1.000  O
  C577     1.0000 0.80560  0.09760  0.50000  Biso   1.000  C
  H193     1.0000 0.83360  0.10200  0.50000  Biso   1.000  H
  C578     1.0000 0.72030  0.08800  0.50000  Biso   1.000  C
  C579     1.0000 0.67990  0.08470  0.50000  Biso   1.000  C
  N49      1.0000 0.64830  0.08180  0.50000  Biso   1.000  N
  C580     1.0000 0.19440  0.90240  0.50000  Biso   1.000  C
  H194     1.0000 0.16640  0.89800  0.50000  Biso   1.000  H
  C581     1.0000 0.27970  0.91200  0.50000  Biso   1.000  C
  C582     1.0000 0.32010  0.91530  0.50000  Biso   1.000  C
  N50      1.0000 0.35170  0.91820  0.50000  Biso   1.000  N
  C583     1.0000 0.19440  0.09760  0.50000  Biso   1.000  C
  H195     1.0000 0.16640  0.10200  0.50000  Biso   1.000  H
  C584     1.0000 0.27970  0.08800  0.50000  Biso   1.000  C
  C585     1.0000 0.32010  0.08470  0.50000  Biso   1.000  C
  N51      1.0000 0.35170  0.08180  0.50000  Biso   1.000  N
  C586     1.0000 0.80560  0.90240  0.50000  Biso   1.000  C
  H196     1.0000 0.83360  0.89800  0.50000  Biso   1.000  H
  C587     1.0000 0.72030  0.91200  0.50000  Biso   1.000  C
  C588     1.0000 0.67990  0.91530  0.50000  Biso   1.000  C
  N52      1.0000 0.64830  0.91820  0.50000  Biso   1.000  N
  C589     1.0000 0.00000  0.80560  0.59760  Biso   1.000  C
  H197     1.0000 0.00000  0.83360  0.60200  Biso   1.000  H
  C590     1.0000 0.00000  0.72030  0.58800  Biso   1.000  C
  C591     1.0000 0.00000  0.67990  0.58470  Biso   1.000  C
  N53      1.0000 0.00000  0.64830  0.58180  Biso   1.000  N
  C592     1.0000 0.00000  0.19440  0.40240  Biso   1.000  C
  H198     1.0000 0.00000  0.16640  0.39800  Biso   1.000  H
  C593     1.0000 0.00000  0.27970  0.41200  Biso   1.000  C
  C594     1.0000 0.00000  0.32010  0.41530  Biso   1.000  C
  N54      1.0000 0.00000  0.35170  0.41820  Biso   1.000  N
  C595     1.0000 0.00000  0.19440  0.59760  Biso   1.000  C
  H199     1.0000 0.00000  0.16640  0.60200  Biso   1.000  H
  C596     1.0000 0.00000  0.27970  0.58800  Biso   1.000  C
  C597     1.0000 0.00000  0.32010  0.58470  Biso   1.000  C
  N55      1.0000 0.00000  0.35170  0.58180  Biso   1.000  N
  C598     1.0000 0.00000  0.80560  0.40240  Biso   1.000  C
  H200     1.0000 0.00000  0.83360  0.39800  Biso   1.000  H
  C599     1.0000 0.00000  0.72030  0.41200  Biso   1.000  C
  C600     1.0000 0.00000  0.67990  0.41530  Biso   1.000  C
  N56      1.0000 0.00000  0.64830  0.41820  Biso   1.000  N
  C601     1.0000 0.09760  0.00000  0.30560  Biso   1.000  C
  H201     1.0000 0.10200  0.00000  0.33360  Biso   1.000  H
  C602     1.0000 0.08800  0.00000  0.22030  Biso   1.000  C
  C603     1.0000 0.08470  0.00000  0.17990  Biso   1.000  C
  N57      1.0000 0.08180  0.00000  0.14830  Biso   1.000  N
  C604     1.0000 0.90240  0.00000  0.69440  Biso   1.000  C
  H202     1.0000 0.89800  0.00000  0.66640  Biso   1.000  H
  C605     1.0000 0.91200  0.00000  0.77970  Biso   1.000  C
  C606     1.0000 0.91530  0.00000  0.82010  Biso   1.000  C
  N58      1.0000 0.91820  0.00000  0.85170  Biso   1.000  N
  C607     1.0000 0.09760  0.00000  0.69440  Biso   1.000  C
  H203     1.0000 0.10200  0.00000  0.66640  Biso   1.000  H
  C608     1.0000 0.08800  0.00000  0.77970  Biso   1.000  C
  C609     1.0000 0.08470  0.00000  0.82010  Biso   1.000  C
  N59      1.0000 0.08180  0.00000  0.85170  Biso   1.000  N
  C610     1.0000 0.90240  0.00000  0.30560  Biso   1.000  C
  H204     1.0000 0.89800  0.00000  0.33360  Biso   1.000  H
  C611     1.0000 0.91200  0.00000  0.22030  Biso   1.000  C
  C612     1.0000 0.91530  0.00000  0.17990  Biso   1.000  C
  N60      1.0000 0.91820  0.00000  0.14830  Biso   1.000  N
  C613     1.0000 0.80340  0.00000  0.73390  Biso   1.000  C
  H205     1.0000 0.80370  0.00000  0.70550  Biso   1.000  H
  C614     1.0000 0.79840  0.00000  0.81900  Biso   1.000  C
  C615     1.0000 0.79620  0.00000  0.86330  Biso   1.000  C
  N61      1.0000 0.79270  0.00000  0.89770  Biso   1.000  N
  C616     1.0000 0.19660  0.00000  0.73390  Biso   1.000  C
  H206     1.0000 0.19630  0.00000  0.70550  Biso   1.000  H
  C617     1.0000 0.20160  0.00000  0.81900  Biso   1.000  C
  C618     1.0000 0.20380  0.00000  0.86330  Biso   1.000  C
  N62      1.0000 0.20730  0.00000  0.89770  Biso   1.000  N
  C619     1.0000 0.19660  0.00000  0.26610  Biso   1.000  C
  H207     1.0000 0.19630  0.00000  0.29450  Biso   1.000  H
  C620     1.0000 0.20160  0.00000  0.18100  Biso   1.000  C
  C621     1.0000 0.20380  0.00000  0.13670  Biso   1.000  C
  N63      1.0000 0.20730  0.00000  0.10230  Biso   1.000  N
  C622     1.0000 0.80340  0.00000  0.26610  Biso   1.000  C
  H208     1.0000 0.80370  0.00000  0.29450  Biso   1.000  H
  C623     1.0000 0.79840  0.00000  0.18100  Biso   1.000  C
  C624     1.0000 0.79620  0.00000  0.13670  Biso   1.000  C
  N64      1.0000 0.79270  0.00000  0.10230  Biso   1.000  N
  C625     1.0000 0.23390  0.80340  0.50000  Biso   1.000  C
  H209     1.0000 0.20550  0.80370  0.50000  Biso   1.000  H
  C626     1.0000 0.31900  0.79840  0.50000  Biso   1.000  C
  C627     1.0000 0.36330  0.79620  0.50000  Biso   1.000  C
  N65      1.0000 0.39770  0.79270  0.50000  Biso   1.000  N
  C628     1.0000 0.23390  0.19660  0.50000  Biso   1.000  C
  H210     1.0000 0.20550  0.19630  0.50000  Biso   1.000  H
  C629     1.0000 0.31900  0.20160  0.50000  Biso   1.000  C
  C630     1.0000 0.36330  0.20380  0.50000  Biso   1.000  C
  N66      1.0000 0.39770  0.20730  0.50000  Biso   1.000  N
  C631     1.0000 0.76610  0.19660  0.50000  Biso   1.000  C
  H211     1.0000 0.79450  0.19630  0.50000  Biso   1.000  H
  C632     1.0000 0.68100  0.20160  0.50000  Biso   1.000  C
  C633     1.0000 0.63670  0.20380  0.50000  Biso   1.000  C
  N67      1.0000 0.60230  0.20730  0.50000  Biso   1.000  N
  C634     1.0000 0.76610  0.80340  0.50000  Biso   1.000  C
  H212     1.0000 0.79450  0.80370  0.50000  Biso   1.000  H
  C635     1.0000 0.68100  0.79840  0.50000  Biso   1.000  C
  C636     1.0000 0.63670  0.79620  0.50000  Biso   1.000  C
  N68      1.0000 0.60230  0.79270  0.50000  Biso   1.000  N
  C637     1.0000 0.00000  0.23390  0.30340  Biso   1.000  C
  H213     1.0000 0.00000  0.20550  0.30370  Biso   1.000  H
  C638     1.0000 0.00000  0.31900  0.29840  Biso   1.000  C
  C639     1.0000 0.00000  0.36330  0.29620  Biso   1.000  C
  N69      1.0000 0.00000  0.39770  0.29270  Biso   1.000  N
  C640     1.0000 0.00000  0.23390  0.69660  Biso   1.000  C
  H214     1.0000 0.00000  0.20550  0.69630  Biso   1.000  H
  C641     1.0000 0.00000  0.31900  0.70160  Biso   1.000  C
  C642     1.0000 0.00000  0.36330  0.70380  Biso   1.000  C
  N70      1.0000 0.00000  0.39770  0.70730  Biso   1.000  N
  C643     1.0000 0.00000  0.76610  0.69660  Biso   1.000  C
  H215     1.0000 0.00000  0.79450  0.69630  Biso   1.000  H
  C644     1.0000 0.00000  0.68100  0.70160  Biso   1.000  C
  C645     1.0000 0.00000  0.63670  0.70380  Biso   1.000  C
  N71      1.0000 0.00000  0.60230  0.70730  Biso   1.000  N
  C646     1.0000 0.00000  0.76610  0.30340  Biso   1.000  C
  H216     1.0000 0.00000  0.79450  0.30370  Biso   1.000  H
  C647     1.0000 0.00000  0.68100  0.29840  Biso   1.000  C
  C648     1.0000 0.00000  0.63670  0.29620  Biso   1.000  C
  N72      1.0000 0.00000  0.60230  0.29270  Biso   1.000  N
  Zn97     1.0000 0.79392  0.62430  0.16432  Biso   1.000  Zn
  C649     1.0000 0.78400  0.59420  0.03710  Biso   1.000  C
  C650     1.0000 0.80550  0.60060  0.07710  Biso   1.000  C
  O313     1.0000 0.84370  0.60438  0.07580  Biso   1.000  O
  O314     1.0000 0.78370  0.60295  0.10735  Biso   1.000  O
  C651     1.0000 0.74220  0.58840  0.03610  Biso   1.000  C
  H217     1.0000 0.72830  0.58460  0.06060  Biso   1.000  H
  C652     1.0000 0.80310  0.53650  0.25430  Biso   1.000  C
  C653     1.0000 0.80270  0.57580  0.23190  Biso   1.000  C
  O315     1.0000 0.80325  0.57300  0.19320  Biso   1.000  O
  O316     1.0000 0.80190  0.60950  0.25050  Biso   1.000  O
  C654     1.0000 0.80060  0.53560  0.29780  Biso   1.000  C
  H218     1.0000 0.80040  0.56010  0.31210  Biso   1.000  H
  Zn98     1.0000 0.20608  0.37570  0.16432  Biso   1.000  Zn
  C655     1.0000 0.21600  0.40580  0.03710  Biso   1.000  C
  C656     1.0000 0.19450  0.39940  0.07710  Biso   1.000  C
  O317     1.0000 0.15630  0.39562  0.07580  Biso   1.000  O
  O318     1.0000 0.21630  0.39705  0.10735  Biso   1.000  O
  C657     1.0000 0.25780  0.41160  0.03610  Biso   1.000  C
  H219     1.0000 0.27170  0.41540  0.06060  Biso   1.000  H
  C658     1.0000 0.19690  0.46350  0.25430  Biso   1.000  C
  C659     1.0000 0.19730  0.42420  0.23190  Biso   1.000  C
  O319     1.0000 0.19675  0.42700  0.19320  Biso   1.000  O
  O320     1.0000 0.19810  0.39050  0.25050  Biso   1.000  O
  C660     1.0000 0.19940  0.46440  0.29780  Biso   1.000  C
  H220     1.0000 0.19960  0.43990  0.31210  Biso   1.000  H
  Zn99     1.0000 0.20608  0.62430  0.83568  Biso   1.000  Zn
  C661     1.0000 0.21600  0.59420  0.96290  Biso   1.000  C
  C662     1.0000 0.19450  0.60060  0.92290  Biso   1.000  C
  O321     1.0000 0.15630  0.60438  0.92420  Biso   1.000  O
  O322     1.0000 0.21630  0.60295  0.89265  Biso   1.000  O
  C663     1.0000 0.25780  0.58840  0.96390  Biso   1.000  C
  H221     1.0000 0.27170  0.58460  0.93940  Biso   1.000  H
  C664     1.0000 0.19690  0.53650  0.74570  Biso   1.000  C
  C665     1.0000 0.19730  0.57580  0.76810  Biso   1.000  C
  O323     1.0000 0.19675  0.57300  0.80680  Biso   1.000  O
  O324     1.0000 0.19810  0.60950  0.74950  Biso   1.000  O
  C666     1.0000 0.19940  0.53560  0.70220  Biso   1.000  C
  H222     1.0000 0.19960  0.56010  0.68790  Biso   1.000  H
  Zn100    1.0000 0.79392  0.37570  0.83568  Biso   1.000  Zn
  C667     1.0000 0.78400  0.40580  0.96290  Biso   1.000  C
  C668     1.0000 0.80550  0.39940  0.92290  Biso   1.000  C
  O325     1.0000 0.84370  0.39562  0.92420  Biso   1.000  O
  O326     1.0000 0.78370  0.39705  0.89265  Biso   1.000  O
  C669     1.0000 0.74220  0.41160  0.96390  Biso   1.000  C
  H223     1.0000 0.72830  0.41540  0.93940  Biso   1.000  H
  C670     1.0000 0.80310  0.46350  0.74570  Biso   1.000  C
  C671     1.0000 0.80270  0.42420  0.76810  Biso   1.000  C
  O327     1.0000 0.80325  0.42700  0.80680  Biso   1.000  O
  O328     1.0000 0.80190  0.39050  0.74950  Biso   1.000  O
  C672     1.0000 0.80060  0.46440  0.70220  Biso   1.000  C
  H224     1.0000 0.80040  0.43990  0.68790  Biso   1.000  H
  Zn101    1.0000 0.16432  0.29392  0.12430  Biso   1.000  Zn
  C673     1.0000 0.03710  0.28400  0.09420  Biso   1.000  C
  C674     1.0000 0.07710  0.30550  0.10060  Biso   1.000  C
  O329     1.0000 0.07580  0.34370  0.10438  Biso   1.000  O
  O330     1.0000 0.10735  0.28370  0.10295  Biso   1.000  O
  C675     1.0000 0.03610  0.24220  0.08840  Biso   1.000  C
  H225     1.0000 0.06060  0.22830  0.08460  Biso   1.000  H
  C676     1.0000 0.25430  0.30310  0.03650  Biso   1.000  C
  C677     1.0000 0.23190  0.30270  0.07580  Biso   1.000  C
  O331     1.0000 0.19320  0.30325  0.07300  Biso   1.000  O
  O332     1.0000 0.25050  0.30190  0.10950  Biso   1.000  O
  C678     1.0000 0.29780  0.30060  0.03560  Biso   1.000  C
  H226     1.0000 0.31210  0.30040  0.06010  Biso   1.000  H
  Zn102    1.0000 0.16432  0.70608  0.87570  Biso   1.000  Zn
  C679     1.0000 0.03710  0.71600  0.90580  Biso   1.000  C
  C680     1.0000 0.07710  0.69450  0.89940  Biso   1.000  C
  O333     1.0000 0.07580  0.65630  0.89562  Biso   1.000  O
  O334     1.0000 0.10735  0.71630  0.89705  Biso   1.000  O
  C681     1.0000 0.03610  0.75780  0.91160  Biso   1.000  C
  H227     1.0000 0.06060  0.77170  0.91540  Biso   1.000  H
  C682     1.0000 0.25430  0.69690  0.96350  Biso   1.000  C
  C683     1.0000 0.23190  0.69730  0.92420  Biso   1.000  C
  O335     1.0000 0.19320  0.69675  0.92700  Biso   1.000  O
  O336     1.0000 0.25050  0.69810  0.89050  Biso   1.000  O
  C684     1.0000 0.29780  0.69940  0.96440  Biso   1.000  C
  H228     1.0000 0.31210  0.69960  0.93990  Biso   1.000  H
  Zn103    1.0000 0.83568  0.70608  0.12430  Biso   1.000  Zn
  C685     1.0000 0.96290  0.71600  0.09420  Biso   1.000  C
  C686     1.0000 0.92290  0.69450  0.10060  Biso   1.000  C
  O337     1.0000 0.92420  0.65630  0.10438  Biso   1.000  O
  O338     1.0000 0.89265  0.71630  0.10295  Biso   1.000  O
  C687     1.0000 0.96390  0.75780  0.08840  Biso   1.000  C
  H229     1.0000 0.93940  0.77170  0.08460  Biso   1.000  H
  C688     1.0000 0.74570  0.69690  0.03650  Biso   1.000  C
  C689     1.0000 0.76810  0.69730  0.07580  Biso   1.000  C
  O339     1.0000 0.80680  0.69675  0.07300  Biso   1.000  O
  O340     1.0000 0.74950  0.69810  0.10950  Biso   1.000  O
  C690     1.0000 0.70220  0.69940  0.03560  Biso   1.000  C
  H230     1.0000 0.68790  0.69960  0.06010  Biso   1.000  H
  Zn104    1.0000 0.83568  0.29392  0.87570  Biso   1.000  Zn
  C691     1.0000 0.96290  0.28400  0.90580  Biso   1.000  C
  C692     1.0000 0.92290  0.30550  0.89940  Biso   1.000  C
  O341     1.0000 0.92420  0.34370  0.89562  Biso   1.000  O
  O342     1.0000 0.89265  0.28370  0.89705  Biso   1.000  O
  C693     1.0000 0.96390  0.24220  0.91160  Biso   1.000  C
  H231     1.0000 0.93940  0.22830  0.91540  Biso   1.000  H
  C694     1.0000 0.74570  0.30310  0.96350  Biso   1.000  C
  C695     1.0000 0.76810  0.30270  0.92420  Biso   1.000  C
  O343     1.0000 0.80680  0.30325  0.92700  Biso   1.000  O
  O344     1.0000 0.74950  0.30190  0.89050  Biso   1.000  O
  C696     1.0000 0.70220  0.30060  0.96440  Biso   1.000  C
  H232     1.0000 0.68790  0.30040  0.93990  Biso   1.000  H
  Zn105    1.0000 0.12430  0.66432  0.79392  Biso   1.000  Zn
  C697     1.0000 0.09420  0.53710  0.78400  Biso   1.000  C
  C698     1.0000 0.10060  0.57710  0.80550  Biso   1.000  C
  O345     1.0000 0.10438  0.57580  0.84370  Biso   1.000  O
  O346     1.0000 0.10295  0.60735  0.78370  Biso   1.000  O
  C699     1.0000 0.08840  0.53610  0.74220  Biso   1.000  C
  H233     1.0000 0.08460  0.56060  0.72830  Biso   1.000  H
  C700     1.0000 0.03650  0.75430  0.80310  Biso   1.000  C
  C701     1.0000 0.07580  0.73190  0.80270  Biso   1.000  C
  O347     1.0000 0.07300  0.69320  0.80325  Biso   1.000  O
  O348     1.0000 0.10950  0.75050  0.80190  Biso   1.000  O
  C702     1.0000 0.03560  0.79780  0.80060  Biso   1.000  C
  H234     1.0000 0.06010  0.81210  0.80040  Biso   1.000  H
  Zn106    1.0000 0.87570  0.66432  0.20608  Biso   1.000  Zn
  C703     1.0000 0.90580  0.53710  0.21600  Biso   1.000  C
  C704     1.0000 0.89940  0.57710  0.19450  Biso   1.000  C
  O349     1.0000 0.89562  0.57580  0.15630  Biso   1.000  O
  O350     1.0000 0.89705  0.60735  0.21630  Biso   1.000  O
  C705     1.0000 0.91160  0.53610  0.25780  Biso   1.000  C
  H235     1.0000 0.91540  0.56060  0.27170  Biso   1.000  H
  C706     1.0000 0.96350  0.75430  0.19690  Biso   1.000  C
  C707     1.0000 0.92420  0.73190  0.19730  Biso   1.000  C
  O351     1.0000 0.92700  0.69320  0.19675  Biso   1.000  O
  O352     1.0000 0.89050  0.75050  0.19810  Biso   1.000  O
  C708     1.0000 0.96440  0.79780  0.19940  Biso   1.000  C
  H236     1.0000 0.93990  0.81210  0.19960  Biso   1.000  H
  Zn107    1.0000 0.12430  0.33568  0.20608  Biso   1.000  Zn
  C709     1.0000 0.09420  0.46290  0.21600  Biso   1.000  C
  C710     1.0000 0.10060  0.42290  0.19450  Biso   1.000  C
  O353     1.0000 0.10438  0.42420  0.15630  Biso   1.000  O
  O354     1.0000 0.10295  0.39265  0.21630  Biso   1.000  O
  C711     1.0000 0.08840  0.46390  0.25780  Biso   1.000  C
  H237     1.0000 0.08460  0.43940  0.27170  Biso   1.000  H
  C712     1.0000 0.03650  0.24570  0.19690  Biso   1.000  C
  C713     1.0000 0.07580  0.26810  0.19730  Biso   1.000  C
  O355     1.0000 0.07300  0.30680  0.19675  Biso   1.000  O
  O356     1.0000 0.10950  0.24950  0.19810  Biso   1.000  O
  C714     1.0000 0.03560  0.20220  0.19940  Biso   1.000  C
  H238     1.0000 0.06010  0.18790  0.19960  Biso   1.000  H
  Zn108    1.0000 0.87570  0.33568  0.79392  Biso   1.000  Zn
  C715     1.0000 0.90580  0.46290  0.78400  Biso   1.000  C
  C716     1.0000 0.89940  0.42290  0.80550  Biso   1.000  C
  O357     1.0000 0.89562  0.42420  0.84370  Biso   1.000  O
  O358     1.0000 0.89705  0.39265  0.78370  Biso   1.000  O
  C717     1.0000 0.91160  0.46390  0.74220  Biso   1.000  C
  H239     1.0000 0.91540  0.43940  0.72830  Biso   1.000  H
  C718     1.0000 0.96350  0.24570  0.80310  Biso   1.000  C
  C719     1.0000 0.92420  0.26810  0.80270  Biso   1.000  C
  O359     1.0000 0.92700  0.30680  0.80325  Biso   1.000  O
  O360     1.0000 0.89050  0.24950  0.80190  Biso   1.000  O
  C720     1.0000 0.96440  0.20220  0.80060  Biso   1.000  C
  H240     1.0000 0.93990  0.18790  0.80040  Biso   1.000  H
  Zn109    1.0000 0.20608  0.37570  0.83568  Biso   1.000  Zn
  C721     1.0000 0.21600  0.40580  0.96290  Biso   1.000  C
  C722     1.0000 0.19450  0.39940  0.92290  Biso   1.000  C
  O361     1.0000 0.15630  0.39562  0.92420  Biso   1.000  O
  O362     1.0000 0.21630  0.39705  0.89265  Biso   1.000  O
  C723     1.0000 0.25780  0.41160  0.96390  Biso   1.000  C
  H241     1.0000 0.27170  0.41540  0.93940  Biso   1.000  H
  C724     1.0000 0.19690  0.46350  0.74570  Biso   1.000  C
  C725     1.0000 0.19730  0.42420  0.76810  Biso   1.000  C
  O363     1.0000 0.19675  0.42700  0.80680  Biso   1.000  O
  O364     1.0000 0.19810  0.39050  0.74950  Biso   1.000  O
  C726     1.0000 0.19940  0.46440  0.70220  Biso   1.000  C
  H242     1.0000 0.19960  0.43990  0.68790  Biso   1.000  H
  Zn110    1.0000 0.79392  0.62430  0.83568  Biso   1.000  Zn
  C727     1.0000 0.78400  0.59420  0.96290  Biso   1.000  C
  C728     1.0000 0.80550  0.60060  0.92290  Biso   1.000  C
  O365     1.0000 0.84370  0.60438  0.92420  Biso   1.000  O
  O366     1.0000 0.78370  0.60295  0.89265  Biso   1.000  O
  C729     1.0000 0.74220  0.58840  0.96390  Biso   1.000  C
  H243     1.0000 0.72830  0.58460  0.93940  Biso   1.000  H
  C730     1.0000 0.80310  0.53650  0.74570  Biso   1.000  C
  C731     1.0000 0.80270  0.57580  0.76810  Biso   1.000  C
  O367     1.0000 0.80325  0.57300  0.80680  Biso   1.000  O
  O368     1.0000 0.80190  0.60950  0.74950  Biso   1.000  O
  C732     1.0000 0.80060  0.53560  0.70220  Biso   1.000  C
  H244     1.0000 0.80040  0.56010  0.68790  Biso   1.000  H
  Zn111    1.0000 0.79392  0.37570  0.16432  Biso   1.000  Zn
  C733     1.0000 0.78400  0.40580  0.03710  Biso   1.000  C
  C734     1.0000 0.80550  0.39940  0.07710  Biso   1.000  C
  O369     1.0000 0.84370  0.39562  0.07580  Biso   1.000  O
  O370     1.0000 0.78370  0.39705  0.10735  Biso   1.000  O
  C735     1.0000 0.74220  0.41160  0.03610  Biso   1.000  C
  H245     1.0000 0.72830  0.41540  0.06060  Biso   1.000  H
  C736     1.0000 0.80310  0.46350  0.25430  Biso   1.000  C
  C737     1.0000 0.80270  0.42420  0.23190  Biso   1.000  C
  O371     1.0000 0.80325  0.42700  0.19320  Biso   1.000  O
  O372     1.0000 0.80190  0.39050  0.25050  Biso   1.000  O
  C738     1.0000 0.80060  0.46440  0.29780  Biso   1.000  C
  H246     1.0000 0.80040  0.43990  0.31210  Biso   1.000  H
  Zn112    1.0000 0.20608  0.62430  0.16432  Biso   1.000  Zn
  C739     1.0000 0.21600  0.59420  0.03710  Biso   1.000  C
  C740     1.0000 0.19450  0.60060  0.07710  Biso   1.000  C
  O373     1.0000 0.15630  0.60438  0.07580  Biso   1.000  O
  O374     1.0000 0.21630  0.60295  0.10735  Biso   1.000  O
  C741     1.0000 0.25780  0.58840  0.03610  Biso   1.000  C
  H247     1.0000 0.27170  0.58460  0.06060  Biso   1.000  H
  C742     1.0000 0.19690  0.53650  0.25430  Biso   1.000  C
  C743     1.0000 0.19730  0.57580  0.23190  Biso   1.000  C
  O375     1.0000 0.19675  0.57300  0.19320  Biso   1.000  O
  O376     1.0000 0.19810  0.60950  0.25050  Biso   1.000  O
  C744     1.0000 0.19940  0.53560  0.29780  Biso   1.000  C
  H248     1.0000 0.19960  0.56010  0.31210  Biso   1.000  H
  Zn113    1.0000 0.83568  0.70608  0.87570  Biso   1.000  Zn
  C745     1.0000 0.96290  0.71600  0.90580  Biso   1.000  C
  C746     1.0000 0.92290  0.69450  0.89940  Biso   1.000  C
  O377     1.0000 0.92420  0.65630  0.89562  Biso   1.000  O
  O378     1.0000 0.89265  0.71630  0.89705  Biso   1.000  O
  C747     1.0000 0.96390  0.75780  0.91160  Biso   1.000  C
  H249     1.0000 0.93940  0.77170  0.91540  Biso   1.000  H
  C748     1.0000 0.74570  0.69690  0.96350  Biso   1.000  C
  C749     1.0000 0.76810  0.69730  0.92420  Biso   1.000  C
  O379     1.0000 0.80680  0.69675  0.92700  Biso   1.000  O
  O380     1.0000 0.74950  0.69810  0.89050  Biso   1.000  O
  C750     1.0000 0.70220  0.69940  0.96440  Biso   1.000  C
  H250     1.0000 0.68790  0.69960  0.93990  Biso   1.000  H
  Zn114    1.0000 0.83568  0.29392  0.12430  Biso   1.000  Zn
  C751     1.0000 0.96290  0.28400  0.09420  Biso   1.000  C
  C752     1.0000 0.92290  0.30550  0.10060  Biso   1.000  C
  O381     1.0000 0.92420  0.34370  0.10438  Biso   1.000  O
  O382     1.0000 0.89265  0.28370  0.10295  Biso   1.000  O
  C753     1.0000 0.96390  0.24220  0.08840  Biso   1.000  C
  H251     1.0000 0.93940  0.22830  0.08460  Biso   1.000  H
  C754     1.0000 0.74570  0.30310  0.03650  Biso   1.000  C
  C755     1.0000 0.76810  0.30270  0.07580  Biso   1.000  C
  O383     1.0000 0.80680  0.30325  0.07300  Biso   1.000  O
  O384     1.0000 0.74950  0.30190  0.10950  Biso   1.000  O
  C756     1.0000 0.70220  0.30060  0.03560  Biso   1.000  C
  H252     1.0000 0.68790  0.30040  0.06010  Biso   1.000  H
  Zn115    1.0000 0.16432  0.29392  0.87570  Biso   1.000  Zn
  C757     1.0000 0.03710  0.28400  0.90580  Biso   1.000  C
  C758     1.0000 0.07710  0.30550  0.89940  Biso   1.000  C
  O385     1.0000 0.07580  0.34370  0.89562  Biso   1.000  O
  O386     1.0000 0.10735  0.28370  0.89705  Biso   1.000  O
  C759     1.0000 0.03610  0.24220  0.91160  Biso   1.000  C
  H253     1.0000 0.06060  0.22830  0.91540  Biso   1.000  H
  C760     1.0000 0.25430  0.30310  0.96350  Biso   1.000  C
  C761     1.0000 0.23190  0.30270  0.92420  Biso   1.000  C
  O387     1.0000 0.19320  0.30325  0.92700  Biso   1.000  O
  O388     1.0000 0.25050  0.30190  0.89050  Biso   1.000  O
  C762     1.0000 0.29780  0.30060  0.96440  Biso   1.000  C
  H254     1.0000 0.31210  0.30040  0.93990  Biso   1.000  H
  Zn116    1.0000 0.16432  0.70608  0.12430  Biso   1.000  Zn
  C763     1.0000 0.03710  0.71600  0.09420  Biso   1.000  C
  C764     1.0000 0.07710  0.69450  0.10060  Biso   1.000  C
  O389     1.0000 0.07580  0.65630  0.10438  Biso   1.000  O
  O390     1.0000 0.10735  0.71630  0.10295  Biso   1.000  O
  C765     1.0000 0.03610  0.75780  0.08840  Biso   1.000  C
  H255     1.0000 0.06060  0.77170  0.08460  Biso   1.000  H
  C766     1.0000 0.25430  0.69690  0.03650  Biso   1.000  C
  C767     1.0000 0.23190  0.69730  0.07580  Biso   1.000  C
  O391     1.0000 0.19320  0.69675  0.07300  Biso   1.000  O
  O392     1.0000 0.25050  0.69810  0.10950  Biso   1.000  O
  C768     1.0000 0.29780  0.69940  0.03560  Biso   1.000  C
  H256     1.0000 0.31210  0.69960  0.06010  Biso   1.000  H
  Zn117    1.0000 0.87570  0.33568  0.20608  Biso   1.000  Zn
  C769     1.0000 0.90580  0.46290  0.21600  Biso   1.000  C
  C770     1.0000 0.89940  0.42290  0.19450  Biso   1.000  C
  O393     1.0000 0.89562  0.42420  0.15630  Biso   1.000  O
  O394     1.0000 0.89705  0.39265  0.21630  Biso   1.000  O
  C771     1.0000 0.91160  0.46390  0.25780  Biso   1.000  C
  H257     1.0000 0.91540  0.43940  0.27170  Biso   1.000  H
  C772     1.0000 0.96350  0.24570  0.19690  Biso   1.000  C
  C773     1.0000 0.92420  0.26810  0.19730  Biso   1.000  C
  O395     1.0000 0.92700  0.30680  0.19675  Biso   1.000  O
  O396     1.0000 0.89050  0.24950  0.19810  Biso   1.000  O
  C774     1.0000 0.96440  0.20220  0.19940  Biso   1.000  C
  H258     1.0000 0.93990  0.18790  0.19960  Biso   1.000  H
  Zn118    1.0000 0.12430  0.33568  0.79392  Biso   1.000  Zn
  C775     1.0000 0.09420  0.46290  0.78400  Biso   1.000  C
  C776     1.0000 0.10060  0.42290  0.80550  Biso   1.000  C
  O397     1.0000 0.10438  0.42420  0.84370  Biso   1.000  O
  O398     1.0000 0.10295  0.39265  0.78370  Biso   1.000  O
  C777     1.0000 0.08840  0.46390  0.74220  Biso   1.000  C
  H259     1.0000 0.08460  0.43940  0.72830  Biso   1.000  H
  C778     1.0000 0.03650  0.24570  0.80310  Biso   1.000  C
  C779     1.0000 0.07580  0.26810  0.80270  Biso   1.000  C
  O399     1.0000 0.07300  0.30680  0.80325  Biso   1.000  O
  O400     1.0000 0.10950  0.24950  0.80190  Biso   1.000  O
  C780     1.0000 0.03560  0.20220  0.80060  Biso   1.000  C
  H260     1.0000 0.06010  0.18790  0.80040  Biso   1.000  H
  Zn119    1.0000 0.87570  0.66432  0.79392  Biso   1.000  Zn
  C781     1.0000 0.90580  0.53710  0.78400  Biso   1.000  C
  C782     1.0000 0.89940  0.57710  0.80550  Biso   1.000  C
  O401     1.0000 0.89562  0.57580  0.84370  Biso   1.000  O
  O402     1.0000 0.89705  0.60735  0.78370  Biso   1.000  O
  C783     1.0000 0.91160  0.53610  0.74220  Biso   1.000  C
  H261     1.0000 0.91540  0.56060  0.72830  Biso   1.000  H
  C784     1.0000 0.96350  0.75430  0.80310  Biso   1.000  C
  C785     1.0000 0.92420  0.73190  0.80270  Biso   1.000  C
  O403     1.0000 0.92700  0.69320  0.80325  Biso   1.000  O
  O404     1.0000 0.89050  0.75050  0.80190  Biso   1.000  O
  C786     1.0000 0.96440  0.79780  0.80060  Biso   1.000  C
  H262     1.0000 0.93990  0.81210  0.80040  Biso   1.000  H
  Zn120    1.0000 0.12430  0.66432  0.20608  Biso   1.000  Zn
  C787     1.0000 0.09420  0.53710  0.21600  Biso   1.000  C
  C788     1.0000 0.10060  0.57710  0.19450  Biso   1.000  C
  O405     1.0000 0.10438  0.57580  0.15630  Biso   1.000  O
  O406     1.0000 0.10295  0.60735  0.21630  Biso   1.000  O
  C789     1.0000 0.08840  0.53610  0.25780  Biso   1.000  C
  H263     1.0000 0.08460  0.56060  0.27170  Biso   1.000  H
  C790     1.0000 0.03650  0.75430  0.19690  Biso   1.000  C
  C791     1.0000 0.07580  0.73190  0.19730  Biso   1.000  C
  O407     1.0000 0.07300  0.69320  0.19675  Biso   1.000  O
  O408     1.0000 0.10950  0.75050  0.19810  Biso   1.000  O
  C792     1.0000 0.03560  0.79780  0.19940  Biso   1.000  C
  H264     1.0000 0.06010  0.81210  0.19960  Biso   1.000  H
  Zn121    1.0000 0.12194  0.37806  0.12194  Biso   1.000  Zn
  O409     1.0000 0.15617  0.34383  0.15617  Biso   1.000  O
  Zn122    1.0000 0.12194  0.62194  0.87806  Biso   1.000  Zn
  O410     1.0000 0.15617  0.65617  0.84383  Biso   1.000  O
  Zn123    1.0000 0.87806  0.62194  0.12194  Biso   1.000  Zn
  O411     1.0000 0.84383  0.65617  0.15617  Biso   1.000  O
  Zn124    1.0000 0.87806  0.37806  0.87806  Biso   1.000  Zn
  O412     1.0000 0.84383  0.34383  0.84383  Biso   1.000  O
  Zn125    1.0000 0.12194  0.37806  0.87806  Biso   1.000  Zn
  O413     1.0000 0.15617  0.34383  0.84383  Biso   1.000  O
  Zn126    1.0000 0.87806  0.62194  0.87806  Biso   1.000  Zn
  O414     1.0000 0.84383  0.65617  0.84383  Biso   1.000  O
  Zn127    1.0000 0.87806  0.37806  0.12194  Biso   1.000  Zn
  O415     1.0000 0.84383  0.34383  0.15617  Biso   1.000  O
  Zn128    1.0000 0.12194  0.62194  0.12194  Biso   1.000  Zn
  O416     1.0000 0.15617  0.65617  0.15617  Biso   1.000  O
  C793     1.0000 0.80560  0.59760  0.00000  Biso   1.000  C
  H265     1.0000 0.83360  0.60200  0.00000  Biso   1.000  H
  C794     1.0000 0.72030  0.58800  0.00000  Biso   1.000  C
  C795     1.0000 0.67990  0.58470  0.00000  Biso   1.000  C
  N73      1.0000 0.64830  0.58180  0.00000  Biso   1.000  N
  C796     1.0000 0.19440  0.40240  0.00000  Biso   1.000  C
  H266     1.0000 0.16640  0.39800  0.00000  Biso   1.000  H
  C797     1.0000 0.27970  0.41200  0.00000  Biso   1.000  C
  C798     1.0000 0.32010  0.41530  0.00000  Biso   1.000  C
  N74      1.0000 0.35170  0.41820  0.00000  Biso   1.000  N
  C799     1.0000 0.19440  0.59760  0.00000  Biso   1.000  C
  H267     1.0000 0.16640  0.60200  0.00000  Biso   1.000  H
  C800     1.0000 0.27970  0.58800  0.00000  Biso   1.000  C
  C801     1.0000 0.32010  0.58470  0.00000  Biso   1.000  C
  N75      1.0000 0.35170  0.58180  0.00000  Biso   1.000  N
  C802     1.0000 0.80560  0.40240  0.00000  Biso   1.000  C
  H268     1.0000 0.83360  0.39800  0.00000  Biso   1.000  H
  C803     1.0000 0.72030  0.41200  0.00000  Biso   1.000  C
  C804     1.0000 0.67990  0.41530  0.00000  Biso   1.000  C
  N76      1.0000 0.64830  0.41820  0.00000  Biso   1.000  N
  C805     1.0000 0.00000  0.30560  0.09760  Biso   1.000  C
  H269     1.0000 0.00000  0.33360  0.10200  Biso   1.000  H
  C806     1.0000 0.00000  0.22030  0.08800  Biso   1.000  C
  C807     1.0000 0.00000  0.17990  0.08470  Biso   1.000  C
  N77      1.0000 0.00000  0.14830  0.08180  Biso   1.000  N
  C808     1.0000 0.00000  0.69440  0.90240  Biso   1.000  C
  H270     1.0000 0.00000  0.66640  0.89800  Biso   1.000  H
  C809     1.0000 0.00000  0.77970  0.91200  Biso   1.000  C
  C810     1.0000 0.00000  0.82010  0.91530  Biso   1.000  C
  N78      1.0000 0.00000  0.85170  0.91820  Biso   1.000  N
  C811     1.0000 0.00000  0.69440  0.09760  Biso   1.000  C
  H271     1.0000 0.00000  0.66640  0.10200  Biso   1.000  H
  C812     1.0000 0.00000  0.77970  0.08800  Biso   1.000  C
  C813     1.0000 0.00000  0.82010  0.08470  Biso   1.000  C
  N79      1.0000 0.00000  0.85170  0.08180  Biso   1.000  N
  C814     1.0000 0.00000  0.30560  0.90240  Biso   1.000  C
  H272     1.0000 0.00000  0.33360  0.89800  Biso   1.000  H
  C815     1.0000 0.00000  0.22030  0.91200  Biso   1.000  C
  C816     1.0000 0.00000  0.17990  0.91530  Biso   1.000  C
  N80      1.0000 0.00000  0.14830  0.91820  Biso   1.000  N
  C817     1.0000 0.09760  0.50000  0.80560  Biso   1.000  C
  H273     1.0000 0.10200  0.50000  0.83360  Biso   1.000  H
  C818     1.0000 0.08800  0.50000  0.72030  Biso   1.000  C
  C819     1.0000 0.08470  0.50000  0.67990  Biso   1.000  C
  N81      1.0000 0.08180  0.50000  0.64830  Biso   1.000  N
  C820     1.0000 0.90240  0.50000  0.19440  Biso   1.000  C
  H274     1.0000 0.89800  0.50000  0.16640  Biso   1.000  H
  C821     1.0000 0.91200  0.50000  0.27970  Biso   1.000  C
  C822     1.0000 0.91530  0.50000  0.32010  Biso   1.000  C
  N82      1.0000 0.91820  0.50000  0.35170  Biso   1.000  N
  C823     1.0000 0.09760  0.50000  0.19440  Biso   1.000  C
  H275     1.0000 0.10200  0.50000  0.16640  Biso   1.000  H
  C824     1.0000 0.08800  0.50000  0.27970  Biso   1.000  C
  C825     1.0000 0.08470  0.50000  0.32010  Biso   1.000  C
  N83      1.0000 0.08180  0.50000  0.35170  Biso   1.000  N
  C826     1.0000 0.90240  0.50000  0.80560  Biso   1.000  C
  H276     1.0000 0.89800  0.50000  0.83360  Biso   1.000  H
  C827     1.0000 0.91200  0.50000  0.72030  Biso   1.000  C
  C828     1.0000 0.91530  0.50000  0.67990  Biso   1.000  C
  N84      1.0000 0.91820  0.50000  0.64830  Biso   1.000  N
  C829     1.0000 0.80340  0.50000  0.23390  Biso   1.000  C
  H277     1.0000 0.80370  0.50000  0.20550  Biso   1.000  H
  C830     1.0000 0.79840  0.50000  0.31900  Biso   1.000  C
  C831     1.0000 0.79620  0.50000  0.36330  Biso   1.000  C
  N85      1.0000 0.79270  0.50000  0.39770  Biso   1.000  N
  C832     1.0000 0.19660  0.50000  0.23390  Biso   1.000  C
  H278     1.0000 0.19630  0.50000  0.20550  Biso   1.000  H
  C833     1.0000 0.20160  0.50000  0.31900  Biso   1.000  C
  C834     1.0000 0.20380  0.50000  0.36330  Biso   1.000  C
  N86      1.0000 0.20730  0.50000  0.39770  Biso   1.000  N
  C835     1.0000 0.19660  0.50000  0.76610  Biso   1.000  C
  H279     1.0000 0.19630  0.50000  0.79450  Biso   1.000  H
  C836     1.0000 0.20160  0.50000  0.68100  Biso   1.000  C
  C837     1.0000 0.20380  0.50000  0.63670  Biso   1.000  C
  N87      1.0000 0.20730  0.50000  0.60230  Biso   1.000  N
  C838     1.0000 0.80340  0.50000  0.76610  Biso   1.000  C
  H280     1.0000 0.80370  0.50000  0.79450  Biso   1.000  H
  C839     1.0000 0.79840  0.50000  0.68100  Biso   1.000  C
  C840     1.0000 0.79620  0.50000  0.63670  Biso   1.000  C
  N88      1.0000 0.79270  0.50000  0.60230  Biso   1.000  N
  C841     1.0000 0.23390  0.30340  0.00000  Biso   1.000  C
  H281     1.0000 0.20550  0.30370  0.00000  Biso   1.000  H
  C842     1.0000 0.31900  0.29840  0.00000  Biso   1.000  C
  C843     1.0000 0.36330  0.29620  0.00000  Biso   1.000  C
  N89      1.0000 0.39770  0.29270  0.00000  Biso   1.000  N
  C844     1.0000 0.23390  0.69660  0.00000  Biso   1.000  C
  H282     1.0000 0.20550  0.69630  0.00000  Biso   1.000  H
  C845     1.0000 0.31900  0.70160  0.00000  Biso   1.000  C
  C846     1.0000 0.36330  0.70380  0.00000  Biso   1.000  C
  N90      1.0000 0.39770  0.70730  0.00000  Biso   1.000  N
  C847     1.0000 0.76610  0.69660  0.00000  Biso   1.000  C
  H283     1.0000 0.79450  0.69630  0.00000  Biso   1.000  H
  C848     1.0000 0.68100  0.70160  0.00000  Biso   1.000  C
  C849     1.0000 0.63670  0.70380  0.00000  Biso   1.000  C
  N91      1.0000 0.60230  0.70730  0.00000  Biso   1.000  N
  C850     1.0000 0.76610  0.30340  0.00000  Biso   1.000  C
  H284     1.0000 0.79450  0.30370  0.00000  Biso   1.000  H
  C851     1.0000 0.68100  0.29840  0.00000  Biso   1.000  C
  C852     1.0000 0.63670  0.29620  0.00000  Biso   1.000  C
  N92      1.0000 0.60230  0.29270  0.00000  Biso   1.000  N
  C853     1.0000 0.00000  0.73390  0.80340  Biso   1.000  C
  H285     1.0000 0.00000  0.70550  0.80370  Biso   1.000  H
  C854     1.0000 0.00000  0.81900  0.79840  Biso   1.000  C
  C855     1.0000 0.00000  0.86330  0.79620  Biso   1.000  C
  N93      1.0000 0.00000  0.89770  0.79270  Biso   1.000  N
  C856     1.0000 0.00000  0.73390  0.19660  Biso   1.000  C
  H286     1.0000 0.00000  0.70550  0.19630  Biso   1.000  H
  C857     1.0000 0.00000  0.81900  0.20160  Biso   1.000  C
  C858     1.0000 0.00000  0.86330  0.20380  Biso   1.000  C
  N94      1.0000 0.00000  0.89770  0.20730  Biso   1.000  N
  C859     1.0000 0.00000  0.26610  0.19660  Biso   1.000  C
  H287     1.0000 0.00000  0.29450  0.19630  Biso   1.000  H
  C860     1.0000 0.00000  0.18100  0.20160  Biso   1.000  C
  C861     1.0000 0.00000  0.13670  0.20380  Biso   1.000  C
  N95      1.0000 0.00000  0.10230  0.20730  Biso   1.000  N
  C862     1.0000 0.00000  0.26610  0.80340  Biso   1.000  C
  H288     1.0000 0.00000  0.29450  0.80370  Biso   1.000  H
  C863     1.0000 0.00000  0.18100  0.79840  Biso   1.000  C
  C864     1.0000 0.00000  0.13670  0.79620  Biso   1.000  C
  N96      1.0000 0.00000  0.10230  0.79270  Biso   1.000  N
