data_image0
_cell_length_a       23.2823
_cell_length_b       13.07
_cell_length_c       34.6314
_cell_angle_alpha    90
_cell_angle_beta     90.084
_cell_angle_gamma    90

_symmetry_space_group_name_H-M    "P 1"
_symmetry_int_tables_number       1

loop_
  _symmetry_equiv_pos_as_xyz
  'x, y, z'

loop_
  _atom_site_label
  _atom_site_occupancy
  _atom_site_fract_x
  _atom_site_fract_y
  _atom_site_fract_z
  _atom_site_thermal_displace_type
  _atom_site_B_iso_or_equiv
  _atom_site_type_symbol
  C1       1.0000 0.11150  0.12550  0.99350  Biso   1.000  C
  H1       1.0000 0.13790  0.14970  0.97550  Biso   1.000  H
  C2       1.0000 0.06460  0.06970  0.98070  Biso   1.000  C
  H2       1.0000 0.05960  0.05890  0.95440  Biso   1.000  H
  C3       1.0000 0.02590  0.03050  0.00610  Biso   1.000  C
  C4       1.0000 0.03580  0.05140  0.04570  Biso   1.000  C
  H3       1.0000 0.01070  0.02660  0.06440  Biso   1.000  H
  C5       1.0000 0.08240  0.10800  0.05620  Biso   1.000  C
  H4       1.0000 0.08830  0.12130  0.08230  Biso   1.000  H
  C6       1.0000 0.11540  0.36040  0.10240  Biso   1.000  C
  H5       1.0000 0.14190  0.33460  0.12000  Biso   1.000  H
  C7       1.0000 0.07190  0.42370  0.11590  Biso   1.000  C
  H6       1.0000 0.07070  0.44200  0.14180  Biso   1.000  H
  C8       1.0000 0.03040  0.45950  0.09060  Biso   1.000  C
  C9       1.0000 0.03660  0.43320  0.05170  Biso   1.000  C
  H7       1.0000 0.01090  0.45770  0.03330  Biso   1.000  H
  C10      1.0000 0.08050  0.37170  0.04100  Biso   1.000  C
  H8       1.0000 0.08330  0.35330  0.01510  Biso   1.000  H
  C11      1.0000 0.90090  0.63240  0.09210  Biso   1.000  C
  H9       1.0000 0.87500  0.65970  0.07440  Biso   1.000  H
  C12      1.0000 0.94390  0.57020  0.07850  Biso   1.000  C
  H10      1.0000 0.94620  0.55610  0.05220  Biso   1.000  H
  C13      1.0000 0.98350  0.52860  0.10350  Biso   1.000  C
  C14      1.0000 0.97620  0.55260  0.14270  Biso   1.000  C
  H11      1.0000 0.00100  0.52560  0.16110  Biso   1.000  H
  C15      1.0000 0.93230  0.61570  0.15370  Biso   1.000  C
  H12      1.0000 0.92880  0.63170  0.17970  Biso   1.000  H
  C16      1.0000 0.89840  0.86370  0.20750  Biso   1.000  C
  H13      1.0000 0.87170  0.83760  0.22490  Biso   1.000  H
  C17      1.0000 0.94150  0.92830  0.22090  Biso   1.000  C
  H14      1.0000 0.94380  0.94350  0.24710  Biso   1.000  H
  C18      1.0000 0.98100  0.97020  0.19580  Biso   1.000  C
  C19      1.0000 0.97640  0.94220  0.15650  Biso   1.000  C
  H15      1.0000 0.00200  0.96730  0.13820  Biso   1.000  H
  C20      1.0000 0.93310  0.87720  0.14640  Biso   1.000  C
  H16      1.0000 0.93030  0.85820  0.12060  Biso   1.000  H
  C21      1.0000 0.11030  0.14460  0.19600  Biso   1.000  C
  H17      1.0000 0.13720  0.16810  0.17830  Biso   1.000  H
  C22      1.0000 0.06690  0.08190  0.18330  Biso   1.000  C
  H18      1.0000 0.06410  0.06650  0.15720  Biso   1.000  H
  C23      1.0000 0.02730  0.04140  0.20860  Biso   1.000  C
  C24      1.0000 0.03330  0.06930  0.24760  Biso   1.000  C
  H19      1.0000 0.00810  0.04410  0.26610  Biso   1.000  H
  C25      1.0000 0.07640  0.13360  0.25780  Biso   1.000  C
  H20      1.0000 0.07940  0.15180  0.28370  Biso   1.000  H
  C26      1.0000 0.07920  0.40290  0.24640  Biso   1.000  C
  H21      1.0000 0.08610  0.39400  0.22020  Biso   1.000  H
  C27      1.0000 0.03270  0.46070  0.25630  Biso   1.000  C
  H22      1.0000 0.00880  0.48910  0.23760  Biso   1.000  H
  C28      1.0000 0.02230  0.47540  0.29520  Biso   1.000  C
  C29      1.0000 0.06000  0.43130  0.32160  Biso   1.000  C
  H23      1.0000 0.05430  0.44000  0.34800  Biso   1.000  H
  C30      1.0000 0.10650  0.37400  0.30830  Biso   1.000  C
  H24      1.0000 0.13190  0.34600  0.32610  Biso   1.000  H
  C31      1.0000 0.88390  0.62600  0.29560  Biso   1.000  C
  H25      1.0000 0.85680  0.64790  0.27760  Biso   1.000  H
  C32      1.0000 0.92960  0.56970  0.28280  Biso   1.000  C
  H26      1.0000 0.93260  0.55420  0.25660  Biso   1.000  H
  C33      1.0000 0.97140  0.53560  0.30790  Biso   1.000  C
  C34      1.0000 0.96300  0.56280  0.34680  Biso   1.000  C
  H27      1.0000 0.98930  0.54110  0.36540  Biso   1.000  H
  C35      1.0000 0.91660  0.62090  0.35800  Biso   1.000  C
  H28      1.0000 0.91310  0.63970  0.38380  Biso   1.000  H
  C36      1.0000 0.88220  0.86980  0.40280  Biso   1.000  C
  H29      1.0000 0.85480  0.84630  0.42020  Biso   1.000  H
  C37      1.0000 0.92730  0.92950  0.41720  Biso   1.000  C
  H30      1.0000 0.92970  0.94620  0.44320  Biso   1.000  H
  C38      1.0000 0.96860  0.96310  0.39090  Biso   1.000  C
  C39      1.0000 0.96300  0.93540  0.35270  Biso   1.000  C
  H31      1.0000 0.99010  0.95620  0.33470  Biso   1.000  H
  C40      1.0000 0.91660  0.87610  0.34150  Biso   1.000  C
  H32      1.0000 0.91360  0.85750  0.31570  Biso   1.000  H
  C41      1.0000 0.10230  0.12790  0.39150  Biso   1.000  C
  H33      1.0000 0.12820  0.15460  0.37380  Biso   1.000  H
  C42      1.0000 0.05650  0.07040  0.37810  Biso   1.000  C
  H34      1.0000 0.05130  0.06130  0.35170  Biso   1.000  H
  C43      1.0000 0.01810  0.02620  0.40420  Biso   1.000  C
  C44      1.0000 0.02800  0.04450  0.44270  Biso   1.000  C
  H35      1.0000 0.00430  0.01480  0.46120  Biso   1.000  H
  C45      1.0000 0.07210  0.10540  0.45410  Biso   1.000  C
  H36      1.0000 0.07610  0.11970  0.48020  Biso   1.000  H
  C46      1.0000 0.07150  0.36820  0.44460  Biso   1.000  C
  H37      1.0000 0.07450  0.35030  0.41870  Biso   1.000  H
  C47      1.0000 0.02780  0.43260  0.45530  Biso   1.000  C
  H38      1.0000 0.00140  0.45520  0.43710  Biso   1.000  H
  C48      1.0000 0.02310  0.46400  0.49360  Biso   1.000  C
  C49      1.0000 0.06260  0.42270  0.51910  Biso   1.000  C
  H39      1.0000 0.06070  0.43870  0.54520  Biso   1.000  H
  C50      1.0000 0.10550  0.35700  0.50550  Biso   1.000  C
  H40      1.0000 0.13220  0.33120  0.52290  Biso   1.000  H
  C51      1.0000 0.32500  0.07060  0.01690  Biso   1.000  C
  H41      1.0000 0.36550  0.08260  0.01900  Biso   1.000  H
  H42      1.0000 0.31470  0.06330  0.99020  Biso   1.000  H
  H43      1.0000 0.31520  0.00910  0.03050  Biso   1.000  H
  C52      1.0000 0.29300  0.15890  0.03390  Biso   1.000  C
  C53      1.0000 0.32250  0.24430  0.04870  Biso   1.000  C
  C54      1.0000 0.29250  0.32660  0.06510  Biso   1.000  C
  C55      1.0000 0.32340  0.41780  0.08290  Biso   1.000  C
  H44      1.0000 0.36410  0.40820  0.08080  Biso   1.000  H
  H45      1.0000 0.31290  0.42380  0.10960  Biso   1.000  H
  H46      1.0000 0.31250  0.47910  0.06940  Biso   1.000  H
  C56      1.0000 0.38720  0.14830  0.11280  Biso   1.000  C
  H47      1.0000 0.34640  0.15460  0.10940  Biso   1.000  H
  H48      1.0000 0.39820  0.18000  0.13670  Biso   1.000  H
  H49      1.0000 0.39750  0.07720  0.11340  Biso   1.000  H
  C57      1.0000 0.41800  0.20060  0.07950  Biso   1.000  C
  C58      1.0000 0.38650  0.24570  0.04900  Biso   1.000  C
  C59      1.0000 0.41690  0.29300  0.02010  Biso   1.000  C
  C60      1.0000 0.38790  0.34150  0.98600  Biso   1.000  C
  H50      1.0000 0.34700  0.33430  0.98850  Biso   1.000  H
  H51      1.0000 0.40040  0.30830  0.96280  Biso   1.000  H
  H52      1.0000 0.39770  0.41280  0.98500  Biso   1.000  H
  C61      1.0000 0.68900  0.59370  0.10610  Biso   1.000  C
  H53      1.0000 0.64840  0.60300  0.10910  Biso   1.000  H
  H54      1.0000 0.69970  0.52700  0.11530  Biso   1.000  H
  H55      1.0000 0.69900  0.59970  0.07930  Biso   1.000  H
  C62      1.0000 0.72040  0.67360  0.12890  Biso   1.000  C
  C63      1.0000 0.69160  0.75010  0.15040  Biso   1.000  C
  C64      1.0000 0.72150  0.82470  0.17150  Biso   1.000  C
  C65      1.0000 0.68980  0.90530  0.19350  Biso   1.000  C
  H56      1.0000 0.64930  0.89610  0.19000  Biso   1.000  H
  H57      1.0000 0.70080  0.97160  0.18420  Biso   1.000  H
  H58      1.0000 0.69910  0.90000  0.22050  Biso   1.000  H
  C66      1.0000 0.62630  0.62820  0.20660  Biso   1.000  C
  H59      1.0000 0.66710  0.63360  0.20340  Biso   1.000  H
  H60      1.0000 0.61490  0.55800  0.20370  Biso   1.000  H
  H61      1.0000 0.61580  0.65200  0.23180  Biso   1.000  H
  C67      1.0000 0.59690  0.69150  0.17680  Biso   1.000  C
  C68      1.0000 0.62710  0.74980  0.15050  Biso   1.000  C
  C69      1.0000 0.59630  0.80670  0.12310  Biso   1.000  C
  C70      1.0000 0.62600  0.87030  0.09320  Biso   1.000  C
  H62      1.0000 0.66680  0.86380  0.09620  Biso   1.000  H
  H63      1.0000 0.61520  0.94070  0.09630  Biso   1.000  H
  H64      1.0000 0.61500  0.84710  0.06790  Biso   1.000  H
  C71      1.0000 0.31660  0.09610  0.21080  Biso   1.000  C
  H65      1.0000 0.35750  0.10390  0.21300  Biso   1.000  H
  H66      1.0000 0.30590  0.09660  0.18400  Biso   1.000  H
  H67      1.0000 0.30520  0.03230  0.22220  Biso   1.000  H
  C72      1.0000 0.28730  0.18280  0.23130  Biso   1.000  C
  C73      1.0000 0.31750  0.26260  0.25020  Biso   1.000  C
  C74      1.0000 0.28920  0.34260  0.26770  Biso   1.000  C
  C75      1.0000 0.32200  0.42820  0.28550  Biso   1.000  C
  H68      1.0000 0.36240  0.41490  0.28330  Biso   1.000  H
  H69      1.0000 0.31190  0.43410  0.31230  Biso   1.000  H
  H70      1.0000 0.31290  0.49090  0.27240  Biso   1.000  H
  C76      1.0000 0.38520  0.36060  0.18810  Biso   1.000  C
  H71      1.0000 0.34430  0.35600  0.19080  Biso   1.000  H
  H72      1.0000 0.39670  0.33100  0.16400  Biso   1.000  H
  H73      1.0000 0.39670  0.43120  0.18880  Biso   1.000  H
  C77      1.0000 0.41390  0.30330  0.22110  Biso   1.000  C
  C78      1.0000 0.38150  0.25760  0.25020  Biso   1.000  C
  C79      1.0000 0.41150  0.20660  0.27930  Biso   1.000  C
  C80      1.0000 0.38080  0.15120  0.31090  Biso   1.000  C
  H74      1.0000 0.34020  0.16180  0.30830  Biso   1.000  H
  H75      1.0000 0.39350  0.17700  0.33550  Biso   1.000  H
  H76      1.0000 0.38910  0.07940  0.30930  Biso   1.000  H
  C81      1.0000 0.67070  0.57420  0.31770  Biso   1.000  C
  H77      1.0000 0.63030  0.58770  0.31970  Biso   1.000  H
  H78      1.0000 0.68000  0.51320  0.33180  Biso   1.000  H
  H79      1.0000 0.68080  0.56510  0.29100  Biso   1.000  H
  C82      1.0000 0.70360  0.66220  0.33400  Biso   1.000  C
  C83      1.0000 0.67410  0.74970  0.34900  Biso   1.000  C
  C84      1.0000 0.70400  0.83410  0.36440  Biso   1.000  C
  C85      1.0000 0.67250  0.92300  0.38150  Biso   1.000  C
  H80      1.0000 0.63180  0.91160  0.37940  Biso   1.000  H
  H81      1.0000 0.68250  0.98430  0.36780  Biso   1.000  H
  H82      1.0000 0.68280  0.93010  0.40820  Biso   1.000  H
  C86      1.0000 0.60800  0.84810  0.28660  Biso   1.000  C
  H83      1.0000 0.64890  0.84260  0.28910  Biso   1.000  H
  H84      1.0000 0.59720  0.91900  0.28630  Biso   1.000  H
  H85      1.0000 0.59590  0.81610  0.26300  Biso   1.000  H
  C87      1.0000 0.57990  0.79630  0.32000  Biso   1.000  C
  C88      1.0000 0.61040  0.74990  0.34930  Biso   1.000  C
  C89      1.0000 0.57900  0.70310  0.38010  Biso   1.000  C
  C90      1.0000 0.61010  0.65060  0.41220  Biso   1.000  C
  H86      1.0000 0.65080  0.65960  0.40890  Biso   1.000  H
  H87      1.0000 0.60110  0.57890  0.41180  Biso   1.000  H
  H88      1.0000 0.59850  0.67960  0.43640  Biso   1.000  H
  C91      1.0000 0.31570  0.08540  0.40880  Biso   1.000  C
  H89      1.0000 0.35620  0.09630  0.41180  Biso   1.000  H
  H90      1.0000 0.30580  0.08850  0.38190  Biso   1.000  H
  H91      1.0000 0.30570  0.01930  0.41890  Biso   1.000  H
  C92      1.0000 0.28360  0.16620  0.43030  Biso   1.000  C
  C93      1.0000 0.31170  0.24480  0.45100  Biso   1.000  C
  C94      1.0000 0.28200  0.31850  0.47120  Biso   1.000  C
  C95      1.0000 0.31280  0.40220  0.49250  Biso   1.000  C
  H92      1.0000 0.35350  0.39360  0.48960  Biso   1.000  H
  H93      1.0000 0.30300  0.39930  0.51940  Biso   1.000  H
  H94      1.0000 0.30160  0.46740  0.48210  Biso   1.000  H
  C96      1.0000 0.37790  0.36130  0.39190  Biso   1.000  C
  H95      1.0000 0.33720  0.35230  0.39440  Biso   1.000  H
  H96      1.0000 0.38990  0.33870  0.36680  Biso   1.000  H
  H97      1.0000 0.38740  0.43230  0.39510  Biso   1.000  H
  C97      1.0000 0.40730  0.30140  0.42150  Biso   1.000  C
  C98      1.0000 0.37650  0.24560  0.45090  Biso   1.000  C
  C99      1.0000 0.40860  0.19240  0.47880  Biso   1.000  C
  C100     1.0000 0.38020  0.13110  0.50910  Biso   1.000  C
  H98      1.0000 0.33930  0.13670  0.50640  Biso   1.000  H
  H99      1.0000 0.39150  0.15590  0.53410  Biso   1.000  H
  H100     1.0000 0.39130  0.06070  0.50660  Biso   1.000  H
  Cu1      1.0000 0.18275  0.24058  0.04851  Biso   1.000  Cu
  Cu2      1.0000 0.83196  0.74761  0.15011  Biso   1.000  Cu
  Cu3      1.0000 0.17783  0.26442  0.25139  Biso   1.000  Cu
  Cu4      1.0000 0.81380  0.74795  0.34941  Biso   1.000  Cu
  Cu5      1.0000 0.17237  0.24026  0.44968  Biso   1.000  Cu
  N1       1.0000 0.12010  0.14540  0.03050  Biso   1.000  N
  N2       1.0000 0.12050  0.33550  0.06580  Biso   1.000  N
  N3       1.0000 0.89440  0.65560  0.12919  Biso   1.000  N
  N4       1.0000 0.89450  0.83890  0.17100  Biso   1.000  N
  N5       1.0000 0.11520  0.17290  0.23306  Biso   1.000  N
  N6       1.0000 0.11550  0.35810  0.27071  Biso   1.000  N
  N7       1.0000 0.87620  0.65100  0.33278  Biso   1.000  N
  N8       1.0000 0.87600  0.84450  0.36564  Biso   1.000  N
  N9       1.0000 0.11060  0.14660  0.42920  Biso   1.000  N
  N10      1.0000 0.10920  0.33040  0.46890  Biso   1.000  N
  O1       1.0000 0.23930  0.14600  0.03173  Biso   1.000  O
  O2       1.0000 0.23850  0.33580  0.06714  Biso   1.000  O
  O3       1.0000 0.47310  0.19850  0.08013  Biso   1.000  O
  O4       1.0000 0.47280  0.29770  0.02007  Biso   1.000  O
  O5       1.0000 0.77570  0.66460  0.12584  Biso   1.000  O
  O6       1.0000 0.77650  0.83110  0.17462  Biso   1.000  O
  O7       1.0000 0.54010  0.69130  0.17765  Biso   1.000  O
  O8       1.0000 0.54050  0.80870  0.12226  Biso   1.000  O
  O9       1.0000 0.23270  0.17520  0.22902  Biso   1.000  O
  O10      1.0000 0.23520  0.35520  0.26962  Biso   1.000  O
  O11      1.0000 0.46970  0.30420  0.22065  Biso   1.000  O
  O12      1.0000 0.46740  0.19930  0.27896  Biso   1.000  O
  O13      1.0000 0.75800  0.65230  0.33272  Biso   1.000  O
  O14      1.0000 0.75870  0.84410  0.36626  Biso   1.000  O
  O15      1.0000 0.52390  0.79920  0.31961  Biso   1.000  O
  O16      1.0000 0.52360  0.69780  0.38046  Biso   1.000  O
  O17      1.0000 0.22890  0.15610  0.42741  Biso   1.000  O
  O18      1.0000 0.22780  0.32460  0.47368  Biso   1.000  O
  O19      1.0000 0.46270  0.30580  0.42171  Biso   1.000  O
  O20      1.0000 0.46430  0.19280  0.47856  Biso   1.000  O
  H101     1.0000 0.53600  0.74600  0.15400  Biso   1.000  H
  H102     1.0000 0.47200  0.25200  0.24990  Biso   1.000  H
  H103     1.0000 0.51800  0.74000  0.35000  Biso   1.000  H
  H104     1.0000 0.46900  0.25300  0.45600  Biso   1.000  H
  H105     1.0000 0.47400  0.25000  0.05060  Biso   1.000  H
  C101     1.0000 0.88850  0.87450  0.00650  Biso   1.000  C
  H106     1.0000 0.86210  0.85030  0.02450  Biso   1.000  H
  C102     1.0000 0.93540  0.93030  0.01930  Biso   1.000  C
  H107     1.0000 0.94040  0.94110  0.04560  Biso   1.000  H
  C103     1.0000 0.97410  0.96950  0.99390  Biso   1.000  C
  C104     1.0000 0.96420  0.94860  0.95430  Biso   1.000  C
  H108     1.0000 0.98930  0.97340  0.93560  Biso   1.000  H
  C105     1.0000 0.91760  0.89200  0.94380  Biso   1.000  C
  H109     1.0000 0.91170  0.87870  0.91770  Biso   1.000  H
  C106     1.0000 0.88460  0.63960  0.89760  Biso   1.000  C
  H110     1.0000 0.85810  0.66540  0.88000  Biso   1.000  H
  C107     1.0000 0.92810  0.57630  0.88410  Biso   1.000  C
  H111     1.0000 0.92930  0.55800  0.85820  Biso   1.000  H
  C108     1.0000 0.96960  0.54050  0.90940  Biso   1.000  C
  C109     1.0000 0.96340  0.56680  0.94830  Biso   1.000  C
  H112     1.0000 0.98910  0.54230  0.96670  Biso   1.000  H
  C110     1.0000 0.91950  0.62830  0.95900  Biso   1.000  C
  H113     1.0000 0.91670  0.64670  0.98490  Biso   1.000  H
  C111     1.0000 0.09910  0.36760  0.90790  Biso   1.000  C
  H114     1.0000 0.12500  0.34030  0.92560  Biso   1.000  H
  C112     1.0000 0.05610  0.42980  0.92150  Biso   1.000  C
  H115     1.0000 0.05380  0.44390  0.94780  Biso   1.000  H
  C113     1.0000 0.01650  0.47140  0.89650  Biso   1.000  C
  C114     1.0000 0.02380  0.44740  0.85730  Biso   1.000  C
  H116     1.0000 0.99900  0.47440  0.83890  Biso   1.000  H
  C115     1.0000 0.06770  0.38430  0.84630  Biso   1.000  C
  H117     1.0000 0.07120  0.36830  0.82030  Biso   1.000  H
  C116     1.0000 0.10160  0.13630  0.79250  Biso   1.000  C
  H118     1.0000 0.12830  0.16240  0.77510  Biso   1.000  H
  C117     1.0000 0.05850  0.07170  0.77910  Biso   1.000  C
  H119     1.0000 0.05620  0.05650  0.75290  Biso   1.000  H
  C118     1.0000 0.01900  0.02980  0.80420  Biso   1.000  C
  C119     1.0000 0.02360  0.05780  0.84350  Biso   1.000  C
  H120     1.0000 0.99800  0.03270  0.86180  Biso   1.000  H
  C120     1.0000 0.06690  0.12280  0.85360  Biso   1.000  C
  H121     1.0000 0.06970  0.14180  0.87940  Biso   1.000  H
  C121     1.0000 0.88970  0.85540  0.80400  Biso   1.000  C
  H122     1.0000 0.86280  0.83190  0.82170  Biso   1.000  H
  C122     1.0000 0.93310  0.91810  0.81670  Biso   1.000  C
  H123     1.0000 0.93590  0.93350  0.84280  Biso   1.000  H
  C123     1.0000 0.97270  0.95860  0.79140  Biso   1.000  C
  C124     1.0000 0.96670  0.93070  0.75240  Biso   1.000  C
  H124     1.0000 0.99190  0.95590  0.73390  Biso   1.000  H
  C125     1.0000 0.92360  0.86640  0.74220  Biso   1.000  C
  H125     1.0000 0.92060  0.84820  0.71630  Biso   1.000  H
  C126     1.0000 0.92080  0.59710  0.75360  Biso   1.000  C
  H126     1.0000 0.91390  0.60600  0.77980  Biso   1.000  H
  C127     1.0000 0.96730  0.53930  0.74370  Biso   1.000  C
  H127     1.0000 0.99120  0.51090  0.76240  Biso   1.000  H
  C128     1.0000 0.97770  0.52460  0.70480  Biso   1.000  C
  C129     1.0000 0.94000  0.56870  0.67840  Biso   1.000  C
  H128     1.0000 0.94570  0.56000  0.65200  Biso   1.000  H
  C130     1.0000 0.89350  0.62600  0.69170  Biso   1.000  C
  H129     1.0000 0.86810  0.65400  0.67390  Biso   1.000  H
  C131     1.0000 0.11610  0.37400  0.70440  Biso   1.000  C
  H130     1.0000 0.14320  0.35210  0.72240  Biso   1.000  H
  C132     1.0000 0.07040  0.43030  0.71720  Biso   1.000  C
  H131     1.0000 0.06740  0.44580  0.74340  Biso   1.000  H
  C133     1.0000 0.02860  0.46440  0.69210  Biso   1.000  C
  C134     1.0000 0.03700  0.43720  0.65320  Biso   1.000  C
  H132     1.0000 0.01070  0.45890  0.63460  Biso   1.000  H
  C135     1.0000 0.08340  0.37910  0.64200  Biso   1.000  C
  H133     1.0000 0.08690  0.36030  0.61620  Biso   1.000  H
  C136     1.0000 0.11780  0.13020  0.59720  Biso   1.000  C
  H134     1.0000 0.14520  0.15370  0.57980  Biso   1.000  H
  C137     1.0000 0.07270  0.07050  0.58280  Biso   1.000  C
  H135     1.0000 0.07030  0.05380  0.55680  Biso   1.000  H
  C138     1.0000 0.03140  0.03690  0.60910  Biso   1.000  C
  C139     1.0000 0.03700  0.06460  0.64730  Biso   1.000  C
  H136     1.0000 0.00990  0.04380  0.66530  Biso   1.000  H
  C140     1.0000 0.08340  0.12390  0.65850  Biso   1.000  C
  H137     1.0000 0.08640  0.14250  0.68430  Biso   1.000  H
  C141     1.0000 0.89770  0.87210  0.60850  Biso   1.000  C
  H138     1.0000 0.87180  0.84540  0.62620  Biso   1.000  H
  C142     1.0000 0.94350  0.92960  0.62190  Biso   1.000  C
  H139     1.0000 0.94870  0.93870  0.64830  Biso   1.000  H
  C143     1.0000 0.98190  0.97380  0.59580  Biso   1.000  C
  C144     1.0000 0.97200  0.95550  0.55730  Biso   1.000  C
  H140     1.0000 0.99570  0.98520  0.53880  Biso   1.000  H
  C145     1.0000 0.92790  0.89460  0.54590  Biso   1.000  C
  H141     1.0000 0.92390  0.88030  0.51980  Biso   1.000  H
  C146     1.0000 0.92850  0.63180  0.55540  Biso   1.000  C
  H142     1.0000 0.92550  0.64970  0.58130  Biso   1.000  H
  C147     1.0000 0.97220  0.56740  0.54470  Biso   1.000  C
  H143     1.0000 0.99860  0.54480  0.56290  Biso   1.000  H
  C148     1.0000 0.97690  0.53600  0.50640  Biso   1.000  C
  C149     1.0000 0.93740  0.57730  0.48090  Biso   1.000  C
  H144     1.0000 0.93930  0.56130  0.45480  Biso   1.000  H
  C150     1.0000 0.89450  0.64300  0.49450  Biso   1.000  C
  H145     1.0000 0.86780  0.66880  0.47710  Biso   1.000  H
  C151     1.0000 0.67500  0.92940  0.98310  Biso   1.000  C
  H146     1.0000 0.63450  0.91740  0.98100  Biso   1.000  H
  H147     1.0000 0.68530  0.93670  0.00980  Biso   1.000  H
  H148     1.0000 0.68480  0.99090  0.96950  Biso   1.000  H
  C152     1.0000 0.70700  0.84110  0.96610  Biso   1.000  C
  C153     1.0000 0.67750  0.75570  0.95130  Biso   1.000  C
  C154     1.0000 0.70750  0.67340  0.93490  Biso   1.000  C
  C155     1.0000 0.67660  0.58220  0.91710  Biso   1.000  C
  H149     1.0000 0.63590  0.59180  0.91920  Biso   1.000  H
  H150     1.0000 0.68710  0.57620  0.89040  Biso   1.000  H
  H151     1.0000 0.68750  0.52090  0.93060  Biso   1.000  H
  C156     1.0000 0.61280  0.85170  0.88720  Biso   1.000  C
  H152     1.0000 0.65360  0.84540  0.89060  Biso   1.000  H
  H153     1.0000 0.60180  0.82000  0.86330  Biso   1.000  H
  H154     1.0000 0.60250  0.92280  0.88660  Biso   1.000  H
  C157     1.0000 0.58200  0.79940  0.92050  Biso   1.000  C
  C158     1.0000 0.61350  0.75430  0.95100  Biso   1.000  C
  C159     1.0000 0.58310  0.70700  0.97990  Biso   1.000  C
  C160     1.0000 0.61210  0.65850  0.01400  Biso   1.000  C
  H155     1.0000 0.65300  0.66570  0.01150  Biso   1.000  H
  H156     1.0000 0.59960  0.69170  0.03720  Biso   1.000  H
  H157     1.0000 0.60230  0.58720  0.01500  Biso   1.000  H
  C161     1.0000 0.31100  0.40630  0.89390  Biso   1.000  C
  H158     1.0000 0.35160  0.39700  0.89090  Biso   1.000  H
  H159     1.0000 0.30030  0.47300  0.88470  Biso   1.000  H
  H160     1.0000 0.30100  0.40030  0.92070  Biso   1.000  H
  C162     1.0000 0.27960  0.32640  0.87110  Biso   1.000  C
  C163     1.0000 0.30840  0.24990  0.84960  Biso   1.000  C
  C164     1.0000 0.27850  0.17530  0.82850  Biso   1.000  C
  C165     1.0000 0.31020  0.09470  0.80650  Biso   1.000  C
  H161     1.0000 0.35070  0.10390  0.81000  Biso   1.000  H
  H162     1.0000 0.29920  0.02840  0.81580  Biso   1.000  H
  H163     1.0000 0.30090  0.10000  0.77950  Biso   1.000  H
  C166     1.0000 0.37370  0.37180  0.79340  Biso   1.000  C
  H164     1.0000 0.33290  0.36640  0.79660  Biso   1.000  H
  H165     1.0000 0.38510  0.44200  0.79630  Biso   1.000  H
  H166     1.0000 0.38420  0.34800  0.76820  Biso   1.000  H
  C167     1.0000 0.40310  0.30850  0.82320  Biso   1.000  C
  C168     1.0000 0.37290  0.25020  0.84950  Biso   1.000  C
  C169     1.0000 0.40370  0.19330  0.87690  Biso   1.000  C
  C170     1.0000 0.37400  0.12970  0.90680  Biso   1.000  C
  H167     1.0000 0.33320  0.13620  0.90380  Biso   1.000  H
  H168     1.0000 0.38480  0.05930  0.90370  Biso   1.000  H
  H169     1.0000 0.38500  0.15290  0.93210  Biso   1.000  H
  C171     1.0000 0.68340  0.90390  0.78920  Biso   1.000  C
  H170     1.0000 0.64250  0.89610  0.78700  Biso   1.000  H
  H171     1.0000 0.69410  0.90340  0.81600  Biso   1.000  H
  H172     1.0000 0.69480  0.96770  0.77780  Biso   1.000  H
  C172     1.0000 0.71270  0.81720  0.76870  Biso   1.000  C
  C173     1.0000 0.68250  0.73740  0.74980  Biso   1.000  C
  C174     1.0000 0.71080  0.65740  0.73230  Biso   1.000  C
  C175     1.0000 0.67800  0.57180  0.71450  Biso   1.000  C
  H173     1.0000 0.63760  0.58510  0.71670  Biso   1.000  H
  H174     1.0000 0.68810  0.56590  0.68770  Biso   1.000  H
  H175     1.0000 0.68710  0.50910  0.72760  Biso   1.000  H
  C176     1.0000 0.61480  0.63940  0.81190  Biso   1.000  C
  H176     1.0000 0.65570  0.64400  0.80920  Biso   1.000  H
  H177     1.0000 0.60330  0.66900  0.83600  Biso   1.000  H
  H178     1.0000 0.60330  0.56880  0.81120  Biso   1.000  H
  C177     1.0000 0.58610  0.69670  0.77890  Biso   1.000  C
  C178     1.0000 0.61850  0.74240  0.74980  Biso   1.000  C
  C179     1.0000 0.58850  0.79340  0.72070  Biso   1.000  C
  C180     1.0000 0.61920  0.84880  0.68910  Biso   1.000  C
  H179     1.0000 0.65980  0.83820  0.69170  Biso   1.000  H
  H180     1.0000 0.60650  0.82300  0.66450  Biso   1.000  H
  H181     1.0000 0.61090  0.92060  0.69070  Biso   1.000  H
  C181     1.0000 0.32930  0.42580  0.68230  Biso   1.000  C
  H182     1.0000 0.36970  0.41230  0.68030  Biso   1.000  H
  H183     1.0000 0.32000  0.48680  0.66820  Biso   1.000  H
  H184     1.0000 0.31920  0.43490  0.70900  Biso   1.000  H
  C182     1.0000 0.29640  0.33780  0.66600  Biso   1.000  C
  C183     1.0000 0.32590  0.25030  0.65100  Biso   1.000  C
  C184     1.0000 0.29600  0.16590  0.63560  Biso   1.000  C
  C185     1.0000 0.32750  0.07700  0.61850  Biso   1.000  C
  H185     1.0000 0.36820  0.08840  0.62060  Biso   1.000  H
  H186     1.0000 0.31750  0.01570  0.63220  Biso   1.000  H
  H187     1.0000 0.31720  0.06990  0.59180  Biso   1.000  H
  C186     1.0000 0.39200  0.15190  0.71340  Biso   1.000  C
  H188     1.0000 0.35110  0.15740  0.71090  Biso   1.000  H
  H189     1.0000 0.40280  0.08100  0.71370  Biso   1.000  H
  H190     1.0000 0.40410  0.18390  0.73700  Biso   1.000  H
  C187     1.0000 0.42010  0.20370  0.68000  Biso   1.000  C
  C188     1.0000 0.38960  0.25010  0.65070  Biso   1.000  C
  C189     1.0000 0.42100  0.29690  0.61990  Biso   1.000  C
  C190     1.0000 0.38990  0.34940  0.58780  Biso   1.000  C
  H191     1.0000 0.34920  0.34040  0.59110  Biso   1.000  H
  H192     1.0000 0.39890  0.42110  0.58820  Biso   1.000  H
  H193     1.0000 0.40150  0.32040  0.56360  Biso   1.000  H
  C191     1.0000 0.68430  0.91460  0.59120  Biso   1.000  C
  H194     1.0000 0.64380  0.90370  0.58820  Biso   1.000  H
  H195     1.0000 0.69420  0.91150  0.61810  Biso   1.000  H
  H196     1.0000 0.69430  0.98070  0.58110  Biso   1.000  H
  C192     1.0000 0.71640  0.83380  0.56970  Biso   1.000  C
  C193     1.0000 0.68830  0.75520  0.54900  Biso   1.000  C
  C194     1.0000 0.71800  0.68150  0.52880  Biso   1.000  C
  C195     1.0000 0.68720  0.59780  0.50750  Biso   1.000  C
  H197     1.0000 0.64650  0.60640  0.51040  Biso   1.000  H
  H198     1.0000 0.69700  0.60070  0.48060  Biso   1.000  H
  H199     1.0000 0.69840  0.53260  0.51790  Biso   1.000  H
  C196     1.0000 0.62210  0.63870  0.60810  Biso   1.000  C
  H200     1.0000 0.66280  0.64770  0.60560  Biso   1.000  H
  H201     1.0000 0.61010  0.66130  0.63320  Biso   1.000  H
  H202     1.0000 0.61260  0.56770  0.60490  Biso   1.000  H
  C197     1.0000 0.59270  0.69860  0.57850  Biso   1.000  C
  C198     1.0000 0.62350  0.75440  0.54910  Biso   1.000  C
  C199     1.0000 0.59140  0.80760  0.52120  Biso   1.000  C
  C200     1.0000 0.61980  0.86890  0.49090  Biso   1.000  C
  H203     1.0000 0.66070  0.86330  0.49360  Biso   1.000  H
  H204     1.0000 0.60850  0.84410  0.46590  Biso   1.000  H
  H205     1.0000 0.60870  0.93930  0.49340  Biso   1.000  H
  Cu6      1.0000 0.81725  0.75942  0.95149  Biso   1.000  Cu
  Cu7      1.0000 0.16804  0.25239  0.84989  Biso   1.000  Cu
  Cu8      1.0000 0.82217  0.73558  0.74861  Biso   1.000  Cu
  Cu9      1.0000 0.18620  0.25205  0.65059  Biso   1.000  Cu
  Cu10     1.0000 0.82763  0.75974  0.55032  Biso   1.000  Cu
  N11      1.0000 0.87990  0.85460  0.96950  Biso   1.000  N
  N12      1.0000 0.87950  0.66450  0.93420  Biso   1.000  N
  N13      1.0000 0.10560  0.34440  0.87081  Biso   1.000  N
  N14      1.0000 0.10550  0.16110  0.82900  Biso   1.000  N
  N15      1.0000 0.88480  0.82710  0.76694  Biso   1.000  N
  N16      1.0000 0.88450  0.64190  0.72929  Biso   1.000  N
  N17      1.0000 0.12380  0.34900  0.66722  Biso   1.000  N
  N18      1.0000 0.12400  0.15550  0.63436  Biso   1.000  N
  N19      1.0000 0.88940  0.85340  0.57080  Biso   1.000  N
  N20      1.0000 0.89080  0.66960  0.53110  Biso   1.000  N
  O21      1.0000 0.76070  0.85400  0.96827  Biso   1.000  O
  O22      1.0000 0.76150  0.66420  0.93286  Biso   1.000  O
  O23      1.0000 0.52690  0.80150  0.91987  Biso   1.000  O
  O24      1.0000 0.52720  0.70230  0.97993  Biso   1.000  O
  O25      1.0000 0.22430  0.33540  0.87416  Biso   1.000  O
  O26      1.0000 0.22350  0.16890  0.82538  Biso   1.000  O
  O27      1.0000 0.45990  0.30870  0.82235  Biso   1.000  O
  O28      1.0000 0.45950  0.19130  0.87774  Biso   1.000  O
  O29      1.0000 0.76730  0.82480  0.77098  Biso   1.000  O
  O30      1.0000 0.76480  0.64480  0.73038  Biso   1.000  O
  O31      1.0000 0.53030  0.69580  0.77935  Biso   1.000  O
  O32      1.0000 0.53260  0.80070  0.72104  Biso   1.000  O
  O33      1.0000 0.24200  0.34770  0.66728  Biso   1.000  O
  O34      1.0000 0.24130  0.15590  0.63374  Biso   1.000  O
  O35      1.0000 0.47610  0.20080  0.68039  Biso   1.000  O
  O36      1.0000 0.47640  0.30220  0.61954  Biso   1.000  O
  O37      1.0000 0.77110  0.84390  0.57259  Biso   1.000  O
  O38      1.0000 0.77220  0.67540  0.52632  Biso   1.000  O
  O39      1.0000 0.53730  0.69420  0.57829  Biso   1.000  O
  O40      1.0000 0.53570  0.80720  0.52144  Biso   1.000  O
  H206     1.0000 0.46400  0.25400  0.84600  Biso   1.000  H
  H207     1.0000 0.52800  0.74800  0.75010  Biso   1.000  H
  H208     1.0000 0.48200  0.26000  0.65000  Biso   1.000  H
  H209     1.0000 0.53100  0.74700  0.54400  Biso   1.000  H
  H210     1.0000 0.52600  0.75000  0.94940  Biso   1.000  H
  C201     1.0000 0.38850  0.62550  0.50650  Biso   1.000  C
  H211     1.0000 0.36210  0.64970  0.52450  Biso   1.000  H
  C202     1.0000 0.43540  0.56970  0.51930  Biso   1.000  C
  H212     1.0000 0.44040  0.55890  0.54560  Biso   1.000  H
  C203     1.0000 0.47410  0.53050  0.49390  Biso   1.000  C
  C204     1.0000 0.46420  0.55140  0.45430  Biso   1.000  C
  H213     1.0000 0.48930  0.52660  0.43560  Biso   1.000  H
  C205     1.0000 0.41760  0.60800  0.44380  Biso   1.000  C
  H214     1.0000 0.41170  0.62130  0.41770  Biso   1.000  H
  C206     1.0000 0.38460  0.86040  0.39760  Biso   1.000  C
  H215     1.0000 0.35810  0.83460  0.38000  Biso   1.000  H
  C207     1.0000 0.42810  0.92370  0.38410  Biso   1.000  C
  H216     1.0000 0.42930  0.94200  0.35820  Biso   1.000  H
  C208     1.0000 0.46960  0.95950  0.40940  Biso   1.000  C
  C209     1.0000 0.46340  0.93320  0.44830  Biso   1.000  C
  H217     1.0000 0.48910  0.95770  0.46670  Biso   1.000  H
  C210     1.0000 0.41950  0.87170  0.45900  Biso   1.000  C
  H218     1.0000 0.41670  0.85330  0.48490  Biso   1.000  H
  C211     1.0000 0.59910  0.13240  0.40790  Biso   1.000  C
  H219     1.0000 0.62500  0.15970  0.42560  Biso   1.000  H
  C212     1.0000 0.55610  0.07020  0.42150  Biso   1.000  C
  H220     1.0000 0.55380  0.05610  0.44780  Biso   1.000  H
  C213     1.0000 0.51650  0.02860  0.39650  Biso   1.000  C
  C214     1.0000 0.52380  0.05260  0.35730  Biso   1.000  C
  H221     1.0000 0.49900  0.02560  0.33890  Biso   1.000  H
  C215     1.0000 0.56770  0.11570  0.34630  Biso   1.000  C
  H222     1.0000 0.57120  0.13170  0.32030  Biso   1.000  H
  C216     1.0000 0.60160  0.36370  0.29250  Biso   1.000  C
  H223     1.0000 0.62830  0.33760  0.27510  Biso   1.000  H
  C217     1.0000 0.55850  0.42830  0.27910  Biso   1.000  C
  H224     1.0000 0.55620  0.44350  0.25290  Biso   1.000  H
  C218     1.0000 0.51900  0.47020  0.30420  Biso   1.000  C
  C219     1.0000 0.52360  0.44220  0.34350  Biso   1.000  C
  H225     1.0000 0.49800  0.46730  0.36180  Biso   1.000  H
  C220     1.0000 0.56690  0.37720  0.35360  Biso   1.000  C
  H226     1.0000 0.56970  0.35820  0.37940  Biso   1.000  H
  C221     1.0000 0.38970  0.64460  0.30400  Biso   1.000  C
  H227     1.0000 0.36280  0.66810  0.32170  Biso   1.000  H
  C222     1.0000 0.43310  0.58190  0.31670  Biso   1.000  C
  H228     1.0000 0.43590  0.56650  0.34280  Biso   1.000  H
  C223     1.0000 0.47270  0.54140  0.29140  Biso   1.000  C
  C224     1.0000 0.46670  0.56930  0.25240  Biso   1.000  C
  H229     1.0000 0.49190  0.54410  0.23390  Biso   1.000  H
  C225     1.0000 0.42360  0.63360  0.24220  Biso   1.000  C
  H230     1.0000 0.42060  0.65180  0.21630  Biso   1.000  H
  C226     1.0000 0.42080  0.90290  0.25360  Biso   1.000  C
  H231     1.0000 0.41390  0.89400  0.27980  Biso   1.000  H
  C227     1.0000 0.46730  0.96070  0.24370  Biso   1.000  C
  H232     1.0000 0.49120  0.98910  0.26240  Biso   1.000  H
  C228     1.0000 0.47770  0.97540  0.20480  Biso   1.000  C
  C229     1.0000 0.44000  0.93130  0.17840  Biso   1.000  C
  H233     1.0000 0.44570  0.94000  0.15200  Biso   1.000  H
  C230     1.0000 0.39350  0.87400  0.19170  Biso   1.000  C
  H234     1.0000 0.36810  0.84600  0.17390  Biso   1.000  H
  C231     1.0000 0.61610  0.12600  0.20440  Biso   1.000  C
  H235     1.0000 0.64320  0.14790  0.22240  Biso   1.000  H
  C232     1.0000 0.57040  0.06970  0.21720  Biso   1.000  C
  H236     1.0000 0.56740  0.05420  0.24340  Biso   1.000  H
  C233     1.0000 0.52860  0.03560  0.19210  Biso   1.000  C
  C234     1.0000 0.53700  0.06280  0.15320  Biso   1.000  C
  H237     1.0000 0.51070  0.04110  0.13460  Biso   1.000  H
  C235     1.0000 0.58340  0.12090  0.14200  Biso   1.000  C
  H238     1.0000 0.58690  0.13970  0.11620  Biso   1.000  H
  C236     1.0000 0.61780  0.36980  0.09720  Biso   1.000  C
  H239     1.0000 0.64520  0.34630  0.07980  Biso   1.000  H
  C237     1.0000 0.57270  0.42950  0.08280  Biso   1.000  C
  H240     1.0000 0.57030  0.44620  0.05680  Biso   1.000  H
  C238     1.0000 0.53140  0.46310  0.10910  Biso   1.000  C
  C239     1.0000 0.53700  0.43540  0.14730  Biso   1.000  C
  H241     1.0000 0.50990  0.45620  0.16530  Biso   1.000  H
  C240     1.0000 0.58340  0.37610  0.15850  Biso   1.000  C
  H242     1.0000 0.58640  0.35750  0.18430  Biso   1.000  H
  C241     1.0000 0.39770  0.62790  0.10850  Biso   1.000  C
  H243     1.0000 0.37180  0.65460  0.12620  Biso   1.000  H
  C242     1.0000 0.44350  0.57040  0.12190  Biso   1.000  C
  H244     1.0000 0.44870  0.56130  0.14830  Biso   1.000  H
  C243     1.0000 0.48190  0.52620  0.09580  Biso   1.000  C
  C244     1.0000 0.47200  0.54450  0.05730  Biso   1.000  C
  H245     1.0000 0.49570  0.51480  0.03880  Biso   1.000  H
  C245     1.0000 0.42790  0.60540  0.04590  Biso   1.000  C
  H246     1.0000 0.42390  0.61970  0.01980  Biso   1.000  H
  C246     1.0000 0.42850  0.86820  0.05540  Biso   1.000  C
  H247     1.0000 0.42550  0.85030  0.08130  Biso   1.000  H
  C247     1.0000 0.47220  0.93260  0.04470  Biso   1.000  C
  H248     1.0000 0.49860  0.95520  0.06290  Biso   1.000  H
  C248     1.0000 0.47690  0.96400  0.00640  Biso   1.000  C
  C249     1.0000 0.43740  0.92270  0.98090  Biso   1.000  C
  H249     1.0000 0.43930  0.93870  0.95480  Biso   1.000  H
  C250     1.0000 0.39450  0.85700  0.99450  Biso   1.000  C
  H250     1.0000 0.36780  0.83120  0.97710  Biso   1.000  H
  C251     1.0000 0.17500  0.57060  0.48310  Biso   1.000  C
  H251     1.0000 0.13450  0.58260  0.48100  Biso   1.000  H
  H252     1.0000 0.18530  0.56330  0.50980  Biso   1.000  H
  H253     1.0000 0.18480  0.50910  0.46950  Biso   1.000  H
  C252     1.0000 0.20700  0.65890  0.46610  Biso   1.000  C
  C253     1.0000 0.17750  0.74430  0.45130  Biso   1.000  C
  C254     1.0000 0.20750  0.82660  0.43490  Biso   1.000  C
  C255     1.0000 0.17660  0.91780  0.41710  Biso   1.000  C
  H254     1.0000 0.13590  0.90820  0.41920  Biso   1.000  H
  H255     1.0000 0.18710  0.92380  0.39040  Biso   1.000  H
  H256     1.0000 0.18750  0.97910  0.43060  Biso   1.000  H
  C256     1.0000 0.11280  0.64830  0.38720  Biso   1.000  C
  H257     1.0000 0.15360  0.65460  0.39060  Biso   1.000  H
  H258     1.0000 0.10180  0.68000  0.36330  Biso   1.000  H
  H259     1.0000 0.10250  0.57720  0.38660  Biso   1.000  H
  C257     1.0000 0.08200  0.70060  0.42050  Biso   1.000  C
  C258     1.0000 0.11350  0.74570  0.45100  Biso   1.000  C
  C259     1.0000 0.08310  0.79300  0.47990  Biso   1.000  C
  C260     1.0000 0.11210  0.84150  0.51400  Biso   1.000  C
  H260     1.0000 0.15300  0.83430  0.51150  Biso   1.000  H
  H261     1.0000 0.09960  0.80830  0.53720  Biso   1.000  H
  H262     1.0000 0.10230  0.91280  0.51500  Biso   1.000  H
  C261     1.0000 0.81100  0.09370  0.39390  Biso   1.000  C
  H263     1.0000 0.85160  0.10300  0.39090  Biso   1.000  H
  H264     1.0000 0.80030  0.02700  0.38470  Biso   1.000  H
  H265     1.0000 0.80100  0.09970  0.42070  Biso   1.000  H
  C262     1.0000 0.77960  0.17360  0.37110  Biso   1.000  C
  C263     1.0000 0.80840  0.25010  0.34960  Biso   1.000  C
  C264     1.0000 0.77850  0.32470  0.32850  Biso   1.000  C
  C265     1.0000 0.81020  0.40530  0.30650  Biso   1.000  C
  H266     1.0000 0.85070  0.39610  0.31000  Biso   1.000  H
  H267     1.0000 0.79920  0.47160  0.31580  Biso   1.000  H
  H268     1.0000 0.80090  0.40000  0.27950  Biso   1.000  H
  C266     1.0000 0.87370  0.12820  0.29340  Biso   1.000  C
  H269     1.0000 0.83290  0.13360  0.29660  Biso   1.000  H
  H270     1.0000 0.88510  0.05800  0.29630  Biso   1.000  H
  H271     1.0000 0.88420  0.15200  0.26820  Biso   1.000  H
  C267     1.0000 0.90310  0.19150  0.32320  Biso   1.000  C
  C268     1.0000 0.87290  0.24980  0.34950  Biso   1.000  C
  C269     1.0000 0.90370  0.30670  0.37690  Biso   1.000  C
  C270     1.0000 0.87400  0.37030  0.40680  Biso   1.000  C
  H272     1.0000 0.83320  0.36380  0.40380  Biso   1.000  H
  H273     1.0000 0.88480  0.44070  0.40370  Biso   1.000  H
  H274     1.0000 0.88500  0.34710  0.43210  Biso   1.000  H
  C271     1.0000 0.18340  0.59610  0.28920  Biso   1.000  C
  H275     1.0000 0.14250  0.60390  0.28700  Biso   1.000  H
  H276     1.0000 0.19410  0.59660  0.31600  Biso   1.000  H
  H277     1.0000 0.19480  0.53230  0.27780  Biso   1.000  H
  C272     1.0000 0.21270  0.68280  0.26870  Biso   1.000  C
  C273     1.0000 0.18250  0.76260  0.24980  Biso   1.000  C
  C274     1.0000 0.21080  0.84260  0.23230  Biso   1.000  C
  C275     1.0000 0.17800  0.92820  0.21450  Biso   1.000  C
  H278     1.0000 0.13760  0.91490  0.21670  Biso   1.000  H
  H279     1.0000 0.18810  0.93410  0.18770  Biso   1.000  H
  H280     1.0000 0.18710  0.99090  0.22760  Biso   1.000  H
  C276     1.0000 0.11480  0.86060  0.31190  Biso   1.000  C
  H281     1.0000 0.15570  0.85600  0.30920  Biso   1.000  H
  H282     1.0000 0.10330  0.83100  0.33600  Biso   1.000  H
  H283     1.0000 0.10330  0.93120  0.31120  Biso   1.000  H
  C277     1.0000 0.08610  0.80330  0.27890  Biso   1.000  C
  C278     1.0000 0.11850  0.75760  0.24980  Biso   1.000  C
  C279     1.0000 0.08850  0.70660  0.22070  Biso   1.000  C
  C280     1.0000 0.11920  0.65120  0.18910  Biso   1.000  C
  H284     1.0000 0.15980  0.66180  0.19170  Biso   1.000  H
  H285     1.0000 0.10650  0.67700  0.16450  Biso   1.000  H
  H286     1.0000 0.11090  0.57940  0.19070  Biso   1.000  H
  C281     1.0000 0.82930  0.07420  0.18230  Biso   1.000  C
  H287     1.0000 0.86970  0.08770  0.18030  Biso   1.000  H
  H288     1.0000 0.82000  0.01320  0.16820  Biso   1.000  H
  H289     1.0000 0.81920  0.06510  0.20900  Biso   1.000  H
  C282     1.0000 0.79640  0.16220  0.16600  Biso   1.000  C
  C283     1.0000 0.82590  0.24970  0.15100  Biso   1.000  C
  C284     1.0000 0.79600  0.33410  0.13560  Biso   1.000  C
  C285     1.0000 0.82750  0.42300  0.11850  Biso   1.000  C
  H290     1.0000 0.86820  0.41160  0.12060  Biso   1.000  H
  H291     1.0000 0.81750  0.48430  0.13220  Biso   1.000  H
  H292     1.0000 0.81720  0.43010  0.09180  Biso   1.000  H
  C286     1.0000 0.89200  0.34810  0.21340  Biso   1.000  C
  H293     1.0000 0.85110  0.34260  0.21090  Biso   1.000  H
  H294     1.0000 0.90280  0.41900  0.21370  Biso   1.000  H
  H295     1.0000 0.90410  0.31610  0.23700  Biso   1.000  H
  C287     1.0000 0.92010  0.29630  0.18000  Biso   1.000  C
  C288     1.0000 0.88960  0.24990  0.15070  Biso   1.000  C
  C289     1.0000 0.92100  0.20310  0.11990  Biso   1.000  C
  C290     1.0000 0.88990  0.15060  0.08780  Biso   1.000  C
  H296     1.0000 0.84920  0.15960  0.09110  Biso   1.000  H
  H297     1.0000 0.89890  0.07890  0.08820  Biso   1.000  H
  H298     1.0000 0.90150  0.17960  0.06360  Biso   1.000  H
  C291     1.0000 0.18430  0.58540  0.09120  Biso   1.000  C
  H299     1.0000 0.14380  0.59630  0.08820  Biso   1.000  H
  H300     1.0000 0.19420  0.58850  0.11810  Biso   1.000  H
  H301     1.0000 0.19430  0.51930  0.08110  Biso   1.000  H
  C292     1.0000 0.21640  0.66620  0.06970  Biso   1.000  C
  C293     1.0000 0.18830  0.74480  0.04900  Biso   1.000  C
  C294     1.0000 0.21800  0.81850  0.02880  Biso   1.000  C
  C295     1.0000 0.18720  0.90220  0.00750  Biso   1.000  C
  H302     1.0000 0.14650  0.89360  0.01040  Biso   1.000  H
  H303     1.0000 0.19700  0.89930  0.98060  Biso   1.000  H
  H304     1.0000 0.19840  0.96740  0.01790  Biso   1.000  H
  C296     1.0000 0.12210  0.86130  0.10810  Biso   1.000  C
  H305     1.0000 0.16280  0.85230  0.10560  Biso   1.000  H
  H306     1.0000 0.11010  0.83870  0.13320  Biso   1.000  H
  H307     1.0000 0.11260  0.93230  0.10490  Biso   1.000  H
  C297     1.0000 0.09270  0.80140  0.07850  Biso   1.000  C
  C298     1.0000 0.12350  0.74560  0.04910  Biso   1.000  C
  C299     1.0000 0.09140  0.69240  0.02120  Biso   1.000  C
  C300     1.0000 0.11980  0.63110  0.99090  Biso   1.000  C
  H308     1.0000 0.16070  0.63670  0.99360  Biso   1.000  H
  H309     1.0000 0.10850  0.65590  0.96590  Biso   1.000  H
  H310     1.0000 0.10870  0.56070  0.99340  Biso   1.000  H
  Cu11     1.0000 0.31725  0.74058  0.45149  Biso   1.000  Cu
  Cu12     1.0000 0.66804  0.24761  0.34989  Biso   1.000  Cu
  Cu13     1.0000 0.32217  0.76442  0.24861  Biso   1.000  Cu
  Cu14     1.0000 0.68620  0.24795  0.15059  Biso   1.000  Cu
  Cu15     1.0000 0.32763  0.74026  0.05032  Biso   1.000  Cu
  N21      1.0000 0.37990  0.64540  0.46950  Biso   1.000  N
  N22      1.0000 0.37950  0.83550  0.43420  Biso   1.000  N
  N23      1.0000 0.60560  0.15560  0.37081  Biso   1.000  N
  N24      1.0000 0.60550  0.33890  0.32900  Biso   1.000  N
  N25      1.0000 0.38480  0.67290  0.26694  Biso   1.000  N
  N26      1.0000 0.38450  0.85810  0.22929  Biso   1.000  N
  N27      1.0000 0.62380  0.15100  0.16722  Biso   1.000  N
  N28      1.0000 0.62400  0.34450  0.13436  Biso   1.000  N
  N29      1.0000 0.38940  0.64660  0.07080  Biso   1.000  N
  N30      1.0000 0.39080  0.83040  0.03110  Biso   1.000  N
  O41      1.0000 0.26070  0.64600  0.46827  Biso   1.000  O
  O42      1.0000 0.26150  0.83580  0.43286  Biso   1.000  O
  O43      1.0000 0.02690  0.69850  0.41987  Biso   1.000  O
  O44      1.0000 0.02720  0.79770  0.47993  Biso   1.000  O
  O45      1.0000 0.72430  0.16460  0.37416  Biso   1.000  O
  O46      1.0000 0.72350  0.33110  0.32538  Biso   1.000  O
  O47      1.0000 0.95990  0.19130  0.32235  Biso   1.000  O
  O48      1.0000 0.95950  0.30870  0.37774  Biso   1.000  O
  O49      1.0000 0.26730  0.67520  0.27098  Biso   1.000  O
  O50      1.0000 0.26480  0.85520  0.23038  Biso   1.000  O
  O51      1.0000 0.03030  0.80420  0.27935  Biso   1.000  O
  O52      1.0000 0.03260  0.69930  0.22104  Biso   1.000  O
  O53      1.0000 0.74200  0.15230  0.16728  Biso   1.000  O
  O54      1.0000 0.74130  0.34410  0.13374  Biso   1.000  O
  O55      1.0000 0.97610  0.29920  0.18039  Biso   1.000  O
  O56      1.0000 0.97640  0.19780  0.11954  Biso   1.000  O
  O57      1.0000 0.27110  0.65610  0.07259  Biso   1.000  O
  O58      1.0000 0.27220  0.82460  0.02632  Biso   1.000  O
  O59      1.0000 0.03730  0.80580  0.07829  Biso   1.000  O
  O60      1.0000 0.03570  0.69280  0.02144  Biso   1.000  O
  H311     1.0000 0.96400  0.24600  0.34600  Biso   1.000  H
  H312     1.0000 0.02800  0.75200  0.25010  Biso   1.000  H
  H313     1.0000 0.98200  0.24000  0.15000  Biso   1.000  H
  H314     1.0000 0.03100  0.75300  0.04400  Biso   1.000  H
  H315     1.0000 0.02600  0.75000  0.44940  Biso   1.000  H
  C301     1.0000 0.61150  0.37450  0.49350  Biso   1.000  C
  H316     1.0000 0.63790  0.35030  0.47550  Biso   1.000  H
  C302     1.0000 0.56460  0.43030  0.48070  Biso   1.000  C
  H317     1.0000 0.55960  0.44110  0.45440  Biso   1.000  H
  C303     1.0000 0.52590  0.46950  0.50610  Biso   1.000  C
  C304     1.0000 0.53580  0.44860  0.54570  Biso   1.000  C
  H318     1.0000 0.51070  0.47340  0.56440  Biso   1.000  H
  C305     1.0000 0.58240  0.39200  0.55620  Biso   1.000  C
  H319     1.0000 0.58830  0.37870  0.58230  Biso   1.000  H
  C306     1.0000 0.61540  0.13960  0.60240  Biso   1.000  C
  H320     1.0000 0.64190  0.16540  0.62000  Biso   1.000  H
  C307     1.0000 0.57190  0.07630  0.61590  Biso   1.000  C
  H321     1.0000 0.57070  0.05800  0.64180  Biso   1.000  H
  C308     1.0000 0.53040  0.04050  0.59060  Biso   1.000  C
  C309     1.0000 0.53660  0.06680  0.55170  Biso   1.000  C
  H322     1.0000 0.51090  0.04230  0.53330  Biso   1.000  H
  C310     1.0000 0.58050  0.12830  0.54100  Biso   1.000  C
  H323     1.0000 0.58330  0.14670  0.51510  Biso   1.000  H
  C311     1.0000 0.40090  0.86760  0.59210  Biso   1.000  C
  H324     1.0000 0.37500  0.84030  0.57440  Biso   1.000  H
  C312     1.0000 0.44390  0.92980  0.57850  Biso   1.000  C
  H325     1.0000 0.44620  0.94390  0.55220  Biso   1.000  H
  C313     1.0000 0.48350  0.97140  0.60350  Biso   1.000  C
  C314     1.0000 0.47620  0.94740  0.64270  Biso   1.000  C
  H326     1.0000 0.50100  0.97440  0.66110  Biso   1.000  H
  C315     1.0000 0.43230  0.88430  0.65370  Biso   1.000  C
  H327     1.0000 0.42880  0.86830  0.67970  Biso   1.000  H
  C316     1.0000 0.39840  0.63630  0.70750  Biso   1.000  C
  H328     1.0000 0.37170  0.66240  0.72490  Biso   1.000  H
  C317     1.0000 0.44150  0.57170  0.72090  Biso   1.000  C
  H329     1.0000 0.44380  0.55650  0.74710  Biso   1.000  H
  C318     1.0000 0.48100  0.52980  0.69580  Biso   1.000  C
  C319     1.0000 0.47640  0.55780  0.65650  Biso   1.000  C
  H330     1.0000 0.50200  0.53270  0.63820  Biso   1.000  H
  C320     1.0000 0.43310  0.62280  0.64640  Biso   1.000  C
  H331     1.0000 0.43030  0.64180  0.62060  Biso   1.000  H
  C321     1.0000 0.61030  0.35540  0.69600  Biso   1.000  C
  H332     1.0000 0.63720  0.33190  0.67830  Biso   1.000  H
  C322     1.0000 0.56690  0.41810  0.68330  Biso   1.000  C
  H333     1.0000 0.56410  0.43350  0.65720  Biso   1.000  H
  C323     1.0000 0.52730  0.45860  0.70860  Biso   1.000  C
  C324     1.0000 0.53330  0.43070  0.74760  Biso   1.000  C
  H334     1.0000 0.50810  0.45590  0.76610  Biso   1.000  H
  C325     1.0000 0.57640  0.36640  0.75780  Biso   1.000  C
  H335     1.0000 0.57940  0.34820  0.78370  Biso   1.000  H
  C326     1.0000 0.57920  0.09710  0.74640  Biso   1.000  C
  H336     1.0000 0.58610  0.10600  0.72020  Biso   1.000  H
  C327     1.0000 0.53270  0.03930  0.75630  Biso   1.000  C
  H337     1.0000 0.50880  0.01090  0.73760  Biso   1.000  H
  C328     1.0000 0.52230  0.02460  0.79520  Biso   1.000  C
  C329     1.0000 0.56000  0.06870  0.82160  Biso   1.000  C
  H338     1.0000 0.55430  0.06000  0.84800  Biso   1.000  H
  C330     1.0000 0.60650  0.12600  0.80830  Biso   1.000  C
  H339     1.0000 0.63190  0.15400  0.82610  Biso   1.000  H
  C331     1.0000 0.38390  0.87400  0.79560  Biso   1.000  C
  H340     1.0000 0.35680  0.85210  0.77760  Biso   1.000  H
  C332     1.0000 0.42960  0.93030  0.78280  Biso   1.000  C
  H341     1.0000 0.43260  0.94580  0.75660  Biso   1.000  H
  C333     1.0000 0.47140  0.96440  0.80790  Biso   1.000  C
  C334     1.0000 0.46300  0.93720  0.84680  Biso   1.000  C
  H342     1.0000 0.48930  0.95890  0.86540  Biso   1.000  H
  C335     1.0000 0.41660  0.87910  0.85800  Biso   1.000  C
  H343     1.0000 0.41310  0.86030  0.88380  Biso   1.000  H
  C336     1.0000 0.38220  0.63020  0.90280  Biso   1.000  C
  H344     1.0000 0.35480  0.65370  0.92020  Biso   1.000  H
  C337     1.0000 0.42730  0.57050  0.91720  Biso   1.000  C
  H345     1.0000 0.42970  0.55380  0.94320  Biso   1.000  H
  C338     1.0000 0.46860  0.53690  0.89090  Biso   1.000  C
  C339     1.0000 0.46300  0.56460  0.85270  Biso   1.000  C
  H346     1.0000 0.49010  0.54380  0.83470  Biso   1.000  H
  C340     1.0000 0.41660  0.62390  0.84150  Biso   1.000  C
  H347     1.0000 0.41360  0.64250  0.81570  Biso   1.000  H
  C341     1.0000 0.60230  0.37210  0.89150  Biso   1.000  C
  H348     1.0000 0.62820  0.34540  0.87380  Biso   1.000  H
  C342     1.0000 0.55650  0.42960  0.87810  Biso   1.000  C
  H349     1.0000 0.55130  0.43870  0.85170  Biso   1.000  H
  C343     1.0000 0.51810  0.47380  0.90420  Biso   1.000  C
  C344     1.0000 0.52800  0.45550  0.94270  Biso   1.000  C
  H350     1.0000 0.50430  0.48520  0.96120  Biso   1.000  H
  C345     1.0000 0.57210  0.39460  0.95410  Biso   1.000  C
  H351     1.0000 0.57610  0.38030  0.98020  Biso   1.000  H
  C346     1.0000 0.57150  0.13180  0.94460  Biso   1.000  C
  H352     1.0000 0.57450  0.14970  0.91870  Biso   1.000  H
  C347     1.0000 0.52780  0.06740  0.95530  Biso   1.000  C
  H353     1.0000 0.50140  0.04480  0.93710  Biso   1.000  H
  C348     1.0000 0.52310  0.03600  0.99360  Biso   1.000  C
  C349     1.0000 0.56260  0.07730  0.01910  Biso   1.000  C
  H354     1.0000 0.56070  0.06130  0.04520  Biso   1.000  H
  C350     1.0000 0.60550  0.14300  0.00550  Biso   1.000  C
  H355     1.0000 0.63220  0.16880  0.02290  Biso   1.000  H
  C351     1.0000 0.82500  0.42940  0.51690  Biso   1.000  C
  H356     1.0000 0.86550  0.41740  0.51900  Biso   1.000  H
  H357     1.0000 0.81470  0.43670  0.49020  Biso   1.000  H
  H358     1.0000 0.81520  0.49090  0.53050  Biso   1.000  H
  C352     1.0000 0.79300  0.34110  0.53390  Biso   1.000  C
  C353     1.0000 0.82250  0.25570  0.54870  Biso   1.000  C
  C354     1.0000 0.79250  0.17340  0.56510  Biso   1.000  C
  C355     1.0000 0.82340  0.08220  0.58290  Biso   1.000  C
  H359     1.0000 0.86410  0.09180  0.58080  Biso   1.000  H
  H360     1.0000 0.81290  0.07620  0.60960  Biso   1.000  H
  H361     1.0000 0.81250  0.02090  0.56940  Biso   1.000  H
  C356     1.0000 0.88720  0.35170  0.61280  Biso   1.000  C
  H362     1.0000 0.84640  0.34540  0.60940  Biso   1.000  H
  H363     1.0000 0.89820  0.32000  0.63670  Biso   1.000  H
  H364     1.0000 0.89750  0.42280  0.61340  Biso   1.000  H
  C357     1.0000 0.91800  0.29940  0.57950  Biso   1.000  C
  C358     1.0000 0.88650  0.25430  0.54900  Biso   1.000  C
  C359     1.0000 0.91690  0.20700  0.52010  Biso   1.000  C
  C360     1.0000 0.88790  0.15850  0.48600  Biso   1.000  C
  H365     1.0000 0.84700  0.16570  0.48850  Biso   1.000  H
  H366     1.0000 0.90040  0.19170  0.46280  Biso   1.000  H
  H367     1.0000 0.89770  0.08720  0.48500  Biso   1.000  H
  C361     1.0000 0.18900  0.90630  0.60610  Biso   1.000  C
  H368     1.0000 0.14840  0.89700  0.60910  Biso   1.000  H
  H369     1.0000 0.19970  0.97300  0.61530  Biso   1.000  H
  H370     1.0000 0.19900  0.90030  0.57930  Biso   1.000  H
  C362     1.0000 0.22040  0.82640  0.62890  Biso   1.000  C
  C363     1.0000 0.19160  0.74990  0.65040  Biso   1.000  C
  C364     1.0000 0.22150  0.67530  0.67150  Biso   1.000  C
  C365     1.0000 0.18980  0.59470  0.69350  Biso   1.000  C
  H371     1.0000 0.14930  0.60390  0.69000  Biso   1.000  H
  H372     1.0000 0.20080  0.52840  0.68420  Biso   1.000  H
  H373     1.0000 0.19910  0.60000  0.72050  Biso   1.000  H
  C366     1.0000 0.12630  0.87180  0.70660  Biso   1.000  C
  H374     1.0000 0.16710  0.86640  0.70340  Biso   1.000  H
  H375     1.0000 0.11490  0.94200  0.70370  Biso   1.000  H
  H376     1.0000 0.11580  0.84800  0.73180  Biso   1.000  H
  C367     1.0000 0.09690  0.80850  0.67680  Biso   1.000  C
  C368     1.0000 0.12710  0.75020  0.65050  Biso   1.000  C
  C369     1.0000 0.09630  0.69330  0.62310  Biso   1.000  C
  C370     1.0000 0.12600  0.62970  0.59320  Biso   1.000  C
  H377     1.0000 0.16680  0.63620  0.59620  Biso   1.000  H
  H378     1.0000 0.11520  0.55930  0.59630  Biso   1.000  H
  H379     1.0000 0.11500  0.65290  0.56790  Biso   1.000  H
  C371     1.0000 0.81660  0.40390  0.71080  Biso   1.000  C
  H380     1.0000 0.85750  0.39610  0.71300  Biso   1.000  H
  H381     1.0000 0.80590  0.40340  0.68400  Biso   1.000  H
  H382     1.0000 0.80520  0.46770  0.72220  Biso   1.000  H
  C372     1.0000 0.78730  0.31720  0.73130  Biso   1.000  C
  C373     1.0000 0.81750  0.23740  0.75020  Biso   1.000  C
  C374     1.0000 0.78920  0.15740  0.76770  Biso   1.000  C
  C375     1.0000 0.82200  0.07180  0.78550  Biso   1.000  C
  H383     1.0000 0.86240  0.08510  0.78330  Biso   1.000  H
  H384     1.0000 0.81190  0.06590  0.81230  Biso   1.000  H
  H385     1.0000 0.81290  0.00910  0.77240  Biso   1.000  H
  C376     1.0000 0.88520  0.13940  0.68810  Biso   1.000  C
  H386     1.0000 0.84430  0.14400  0.69080  Biso   1.000  H
  H387     1.0000 0.89670  0.16900  0.66400  Biso   1.000  H
  H388     1.0000 0.89670  0.06880  0.68880  Biso   1.000  H
  C377     1.0000 0.91390  0.19670  0.72110  Biso   1.000  C
  C378     1.0000 0.88150  0.24240  0.75020  Biso   1.000  C
  C379     1.0000 0.91150  0.29340  0.77930  Biso   1.000  C
  C380     1.0000 0.88080  0.34880  0.81090  Biso   1.000  C
  H389     1.0000 0.84020  0.33820  0.80830  Biso   1.000  H
  H390     1.0000 0.89350  0.32300  0.83550  Biso   1.000  H
  H391     1.0000 0.88910  0.42060  0.80930  Biso   1.000  H
  C381     1.0000 0.17070  0.92580  0.81770  Biso   1.000  C
  H392     1.0000 0.13030  0.91230  0.81970  Biso   1.000  H
  H393     1.0000 0.18000  0.98680  0.83180  Biso   1.000  H
  H394     1.0000 0.18080  0.93490  0.79100  Biso   1.000  H
  C382     1.0000 0.20360  0.83780  0.83400  Biso   1.000  C
  C383     1.0000 0.17410  0.75030  0.84900  Biso   1.000  C
  C384     1.0000 0.20400  0.66590  0.86440  Biso   1.000  C
  C385     1.0000 0.17250  0.57700  0.88150  Biso   1.000  C
  H395     1.0000 0.13180  0.58840  0.87940  Biso   1.000  H
  H396     1.0000 0.18250  0.51570  0.86780  Biso   1.000  H
  H397     1.0000 0.18280  0.56990  0.90820  Biso   1.000  H
  C386     1.0000 0.10800  0.65190  0.78660  Biso   1.000  C
  H398     1.0000 0.14890  0.65740  0.78910  Biso   1.000  H
  H399     1.0000 0.09720  0.58100  0.78630  Biso   1.000  H
  H400     1.0000 0.09590  0.68390  0.76300  Biso   1.000  H
  C387     1.0000 0.07990  0.70370  0.82000  Biso   1.000  C
  C388     1.0000 0.11040  0.75010  0.84930  Biso   1.000  C
  C389     1.0000 0.07900  0.79690  0.88010  Biso   1.000  C
  C390     1.0000 0.11010  0.84940  0.91220  Biso   1.000  C
  H401     1.0000 0.15080  0.84040  0.90890  Biso   1.000  H
  H402     1.0000 0.10110  0.92110  0.91180  Biso   1.000  H
  H403     1.0000 0.09850  0.82040  0.93640  Biso   1.000  H
  C391     1.0000 0.81570  0.41460  0.90880  Biso   1.000  C
  H404     1.0000 0.85620  0.40370  0.91180  Biso   1.000  H
  H405     1.0000 0.80580  0.41150  0.88190  Biso   1.000  H
  H406     1.0000 0.80570  0.48070  0.91890  Biso   1.000  H
  C392     1.0000 0.78360  0.33380  0.93030  Biso   1.000  C
  C393     1.0000 0.81170  0.25520  0.95100  Biso   1.000  C
  C394     1.0000 0.78200  0.18150  0.97120  Biso   1.000  C
  C395     1.0000 0.81280  0.09780  0.99250  Biso   1.000  C
  H407     1.0000 0.85350  0.10640  0.98960  Biso   1.000  H
  H408     1.0000 0.80300  0.10070  0.01940  Biso   1.000  H
  H409     1.0000 0.80160  0.03260  0.98210  Biso   1.000  H
  C396     1.0000 0.87790  0.13870  0.89190  Biso   1.000  C
  H410     1.0000 0.83720  0.14770  0.89440  Biso   1.000  H
  H411     1.0000 0.88990  0.16130  0.86680  Biso   1.000  H
  H412     1.0000 0.88740  0.06770  0.89510  Biso   1.000  H
  C397     1.0000 0.90730  0.19860  0.92150  Biso   1.000  C
  C398     1.0000 0.87650  0.25440  0.95090  Biso   1.000  C
  C399     1.0000 0.90860  0.30760  0.97880  Biso   1.000  C
  C400     1.0000 0.88020  0.36890  0.00910  Biso   1.000  C
  H413     1.0000 0.83930  0.36330  0.00640  Biso   1.000  H
  H414     1.0000 0.89150  0.34410  0.03410  Biso   1.000  H
  H415     1.0000 0.89130  0.43930  0.00660  Biso   1.000  H
  Cu16     1.0000 0.68275  0.25942  0.54851  Biso   1.000  Cu
  Cu17     1.0000 0.33196  0.75239  0.65011  Biso   1.000  Cu
  Cu18     1.0000 0.67783  0.23558  0.75139  Biso   1.000  Cu
  Cu19     1.0000 0.31380  0.75205  0.84941  Biso   1.000  Cu
  Cu20     1.0000 0.67237  0.25974  0.94968  Biso   1.000  Cu
  N31      1.0000 0.62010  0.35460  0.53050  Biso   1.000  N
  N32      1.0000 0.62050  0.16450  0.56580  Biso   1.000  N
  N33      1.0000 0.39440  0.84440  0.62919  Biso   1.000  N
  N34      1.0000 0.39450  0.66110  0.67100  Biso   1.000  N
  N35      1.0000 0.61520  0.32710  0.73306  Biso   1.000  N
  N36      1.0000 0.61550  0.14190  0.77071  Biso   1.000  N
  N37      1.0000 0.37620  0.84900  0.83278  Biso   1.000  N
  N38      1.0000 0.37600  0.65550  0.86564  Biso   1.000  N
  N39      1.0000 0.61060  0.35340  0.92920  Biso   1.000  N
  N40      1.0000 0.60920  0.16960  0.96890  Biso   1.000  N
  O61      1.0000 0.73930  0.35400  0.53173  Biso   1.000  O
  O62      1.0000 0.73850  0.16420  0.56714  Biso   1.000  O
  O63      1.0000 0.97310  0.30150  0.58013  Biso   1.000  O
  O64      1.0000 0.97280  0.20230  0.52007  Biso   1.000  O
  O65      1.0000 0.27570  0.83540  0.62584  Biso   1.000  O
  O66      1.0000 0.27650  0.66890  0.67462  Biso   1.000  O
  O67      1.0000 0.04010  0.80870  0.67765  Biso   1.000  O
  O68      1.0000 0.04050  0.69130  0.62226  Biso   1.000  O
  O69      1.0000 0.73270  0.32480  0.72902  Biso   1.000  O
  O70      1.0000 0.73520  0.14480  0.76962  Biso   1.000  O
  O71      1.0000 0.96970  0.19580  0.72065  Biso   1.000  O
  O72      1.0000 0.96740  0.30070  0.77896  Biso   1.000  O
  O73      1.0000 0.25800  0.84770  0.83272  Biso   1.000  O
  O74      1.0000 0.25870  0.65590  0.86626  Biso   1.000  O
  O75      1.0000 0.02390  0.70080  0.81961  Biso   1.000  O
  O76      1.0000 0.02360  0.80220  0.88046  Biso   1.000  O
  O77      1.0000 0.72890  0.34390  0.92741  Biso   1.000  O
  O78      1.0000 0.72780  0.17540  0.97368  Biso   1.000  O
  O79      1.0000 0.96270  0.19420  0.92171  Biso   1.000  O
  O80      1.0000 0.96430  0.30720  0.97856  Biso   1.000  O
  H416     1.0000 0.03600  0.75400  0.65400  Biso   1.000  H
  H417     1.0000 0.97200  0.24800  0.74990  Biso   1.000  H
  H418     1.0000 0.01800  0.76000  0.85000  Biso   1.000  H
  H419     1.0000 0.96900  0.24700  0.95600  Biso   1.000  H
  H420     1.0000 0.97400  0.25000  0.55060  Biso   1.000  H
