data_image0
_cell_length_a       37.916
_cell_length_b       21.039
_cell_length_c       28.447
_cell_angle_alpha    90
_cell_angle_beta     113.692
_cell_angle_gamma    90

_symmetry_space_group_name_H-M    "P 1"
_symmetry_int_tables_number       1

loop_
  _symmetry_equiv_pos_as_xyz
  'x, y, z'

loop_
  _atom_site_label
  _atom_site_occupancy
  _atom_site_fract_x
  _atom_site_fract_y
  _atom_site_fract_z
  _atom_site_thermal_displace_type
  _atom_site_B_iso_or_equiv
  _atom_site_type_symbol
  Mo1      1.0000 0.13963  0.81998  0.55926  Biso   1.000  Mo
  Mo2      1.0000 0.22697  0.64898  0.73740  Biso   1.000  Mo
  Mo3      1.0000 0.23944  0.74536  0.68985  Biso   1.000  Mo
  Mo4      1.0000 0.06186  0.82485  0.88543  Biso   1.000  Mo
  Mo5      1.0000 0.07653  0.75934  0.54575  Biso   1.000  Mo
  Mo6      1.0000 0.07030  0.92143  0.83439  Biso   1.000  Mo
  Co1      1.0000 0.14353  0.79555  0.84206  Biso   1.000  Co
  Co2      1.0000 0.10536  0.87176  0.65748  Biso   1.000  Co
  Co3      1.0000 0.18089  0.80480  0.75787  Biso   1.000  Co
  Co4      1.0000 0.21304  0.60859  0.60097  Biso   1.000  Co
  Co5      1.0000 0.14460  0.65451  0.51497  Biso   1.000  Co
  Co6      1.0000 0.96469  0.90435  0.80559  Biso   1.000  Co
  P1       1.0000 0.12808  0.92409  0.77032  Biso   1.000  P
  P2       1.0000 0.15084  0.68166  0.62969  Biso   1.000  P
  P3       1.0000 0.05579  0.78121  0.76947  Biso   1.000  P
  P4       1.0000 0.19424  0.88593  0.67070  Biso   1.000  P
  P5       1.0000 0.01731  0.81218  0.59587  Biso   1.000  P
  P6       1.0000 0.12545  0.70301  0.92577  Biso   1.000  P
  P7       1.0000 0.22039  0.75351  0.56411  Biso   1.000  P
  P8       1.0000 0.22628  0.50207  0.69226  Biso   1.000  P
  P9       1.0000 0.20367  0.68236  0.83146  Biso   1.000  P
  P10      1.0000 0.05176  0.62675  0.47673  Biso   1.000  P
  O1       1.0000 0.11590  0.63236  0.92512  Biso   1.000  O
  H1       1.0000 0.13560  0.62130  0.94780  Biso   1.000  H
  O2       1.0000 0.18688  0.64370  0.86498  Biso   1.000  O
  O3       1.0000 0.24549  0.70057  0.86402  Biso   1.000  O
  H2       1.0000 0.25320  0.66500  0.87040  Biso   1.000  H
  O4       1.0000 0.10525  0.82535  0.59496  Biso   1.000  O
  O5       1.0000 0.09654  0.76135  0.77937  Biso   1.000  O
  O6       1.0000 0.09740  0.91777  0.71549  Biso   1.000  O
  O7       1.0000 0.10336  0.84713  0.86299  Biso   1.000  O
  O8       1.0000 0.16734  0.86970  0.69736  Biso   1.000  O
  O9       1.0000 0.05019  0.85375  0.76009  Biso   1.000  O
  O10      1.0000 0.17376  0.74419  0.63062  Biso   1.000  O
  O11      1.0000 0.02468  0.88441  0.83903  Biso   1.000  O
  O12      1.0000 0.11923  0.73936  0.52482  Biso   1.000  O
  O13      1.0000 0.20107  0.63645  0.78833  Biso   1.000  O
  O14      1.0000 0.21666  0.74078  0.73992  Biso   1.000  O
  O15      1.0000 0.10997  0.94933  0.80515  Biso   1.000  O
  O16      1.0000 0.15651  0.63272  0.59221  Biso   1.000  O
  O17      1.0000 0.04491  0.85500  0.63834  Biso   1.000  O
  O18      1.0000 0.18768  0.80248  0.54601  Biso   1.000  O
  O19      1.0000 0.23480  0.65505  0.67249  Biso   1.000  O
  O20      1.0000 0.16479  0.65174  0.68341  Biso   1.000  O
  O21      1.0000 0.15745  0.97771  0.77013  Biso   1.000  O
  O22      1.0000 0.17328  0.88405  0.61206  Biso   1.000  O
  O23      1.0000 0.24762  0.76922  0.53813  Biso   1.000  O
  H3       1.0000 0.26829  0.76900  0.53610  Biso   1.000  H
  O24      1.0000 0.20868  0.95584  0.68315  Biso   1.000  O
  O25      1.0000 0.15017  0.86293  0.78980  Biso   1.000  O
  O26      1.0000 0.03854  0.75805  0.58299  Biso   1.000  O
  O27      1.0000 0.17830  0.74145  0.81111  Biso   1.000  O
  O28      1.0000 0.20270  0.68650  0.55060  Biso   1.000  O
  O29      1.0000 0.04335  0.76341  0.81327  Biso   1.000  O
  O30      1.0000 0.24493  0.76139  0.62167  Biso   1.000  O
  O31      1.0000 0.22938  0.84234  0.68938  Biso   1.000  O
  O32      1.0000 0.14274  0.71888  0.88784  Biso   1.000  O
  O33      1.0000 0.99831  0.85599  0.54708  Biso   1.000  O
  O34      1.0000 0.98588  0.78193  0.60917  Biso   1.000  O
  O35      1.0000 0.10805  0.69780  0.61270  Biso   1.000  O
  O36      1.0000 0.21826  0.52424  0.63758  Biso   1.000  O
  O37      1.0000 0.05000  0.67481  0.51577  Biso   1.000  O
  O38      1.0000 0.03047  0.74420  0.71926  Biso   1.000  O
  O39      1.0000 0.08905  0.73916  0.91652  Biso   1.000  O
  O40      1.0000 0.26604  0.47459  0.71913  Biso   1.000  O
  O41      1.0000 0.21728  0.55253  0.72404  Biso   1.000  O
  O42      1.0000 0.15659  0.72050  0.98042  Biso   1.000  O
  O43      1.0000 0.09232  0.60696  0.48644  Biso   1.000  O
  O44      1.0000 0.19666  0.44585  0.68571  Biso   1.000  O
  O45      1.0000 0.03037  0.56680  0.48219  Biso   1.000  O
  O46      1.0000 0.03126  0.65200  0.42375  Biso   1.000  O
  C1       1.0000 0.12100  0.63370  0.40120  Biso   1.000  C
  H4       1.0000 0.10990  0.59750  0.40820  Biso   1.000  H
  C2       1.0000 0.11720  0.64480  0.35050  Biso   1.000  C
  H5       1.0000 0.10230  0.61800  0.32390  Biso   1.000  H
  C3       1.0000 0.13590  0.69520  0.34120  Biso   1.000  C
  H6       1.0000 0.13410  0.70260  0.30800  Biso   1.000  H
  C4       1.0000 0.15740  0.73530  0.38030  Biso   1.000  C
  H7       1.0000 0.17110  0.76900  0.37460  Biso   1.000  H
  C5       1.0000 0.15792  0.72370  0.42840  Biso   1.000  C
  H8       1.0000 0.17130  0.75180  0.45480  Biso   1.000  H
  C6       1.0000 0.11892  0.01100  0.63870  Biso   1.000  C
  H9       1.0000 0.13610  0.00850  0.67290  Biso   1.000  H
  C7       1.0000 0.11570  0.06850  0.61310  Biso   1.000  C
  H10      1.0000 0.13000  0.10350  0.63040  Biso   1.000  H
  C8       1.0000 0.09200  0.07340  0.56360  Biso   1.000  C
  H11      1.0000 0.08950  0.11140  0.54590  Biso   1.000  H
  C9       1.0000 0.07190  0.02150  0.54020  Biso   1.000  C
  H12      1.0000 0.05520  0.02380  0.50580  Biso   1.000  H
  C10      1.0000 0.07535  0.96490  0.56630  Biso   1.000  C
  H13      1.0000 0.06130  0.92980  0.54870  Biso   1.000  H
  C11      1.0000 0.19464  0.90130  0.90753  Biso   1.000  C
  H14      1.0000 0.17510  0.92720  0.88560  Biso   1.000  H
  C12      1.0000 0.22653  0.92900  0.94530  Biso   1.000  C
  H15      1.0000 0.22800  0.97300  0.94860  Biso   1.000  H
  C13      1.0000 0.25570  0.89230  0.97770  Biso   1.000  C
  H16      1.0000 0.27710  0.91050  0.00350  Biso   1.000  H
  C14      1.0000 0.25257  0.82880  0.97140  Biso   1.000  C
  H17      1.0000 0.27240  0.80260  0.99250  Biso   1.000  H
  C15      1.0000 0.22040  0.80240  0.93398  Biso   1.000  C
  H18      1.0000 0.21880  0.75840  0.93090  Biso   1.000  H
  C16      1.0000 0.29791  0.57610  0.63360  Biso   1.000  C
  H19      1.0000 0.29640  0.56700  0.66470  Biso   1.000  H
  C17      1.0000 0.33288  0.56720  0.62910  Biso   1.000  C
  H20      1.0000 0.35400  0.55100  0.65660  Biso   1.000  H
  C18      1.0000 0.33594  0.58240  0.58450  Biso   1.000  C
  H21      1.0000 0.35930  0.57770  0.58130  Biso   1.000  H
  C19      1.0000 0.30399  0.60470  0.54430  Biso   1.000  C
  H22      1.0000 0.30510  0.61480  0.51310  Biso   1.000  H
  C20      1.0000 0.27013  0.61170  0.55110  Biso   1.000  C
  H23      1.0000 0.24860  0.62740  0.52390  Biso   1.000  H
  O47      1.0000 0.96372  0.98050  0.71686  Biso   1.000  O
  P11      1.0000 0.99397  0.00674  0.76245  Biso   1.000  P
  O48      1.0000 0.97948  0.98800  0.80370  Biso   1.000  O
  C21      1.0000 0.95270  0.04840  0.81900  Biso   1.000  C
  H24      1.0000 0.93470  0.04360  0.78540  Biso   1.000  H
  C22      1.0000 0.95560  0.10580  0.84090  Biso   1.000  C
  H25      1.0000 0.94000  0.13980  0.82410  Biso   1.000  H
  C23      1.0000 0.98340  0.11090  0.89000  Biso   1.000  C
  H26      1.0000 0.98740  0.15000  0.90660  Biso   1.000  H
  C24      1.0000 0.00530  0.06060  0.91510  Biso   1.000  C
  H27      1.0000 0.02380  0.06750  0.94810  Biso   1.000  H
  C25      1.0000 0.00200  0.99950  0.89500  Biso   1.000  C
  H28      1.0000 0.01590  0.96460  0.91310  Biso   1.000  H
  N1       1.0000 0.97413  0.99720  0.84210  Biso   1.000  N
  N2       1.0000 0.13991  0.67370  0.43925  Biso   1.000  N
  N3       1.0000 0.09838  0.95880  0.61634  Biso   1.000  N
  N4       1.0000 0.19110  0.83773  0.90162  Biso   1.000  N
  N5       1.0000 0.26658  0.59734  0.59457  Biso   1.000  N
  Mo7      1.0000 0.86037  0.81998  0.94074  Biso   1.000  Mo
  Mo8      1.0000 0.77303  0.64898  0.76260  Biso   1.000  Mo
  Mo9      1.0000 0.76056  0.74536  0.81015  Biso   1.000  Mo
  Mo10     1.0000 0.93814  0.82485  0.61457  Biso   1.000  Mo
  Mo11     1.0000 0.92347  0.75934  0.95425  Biso   1.000  Mo
  Mo12     1.0000 0.92970  0.92143  0.66561  Biso   1.000  Mo
  Co7      1.0000 0.85647  0.79555  0.65794  Biso   1.000  Co
  Co8      1.0000 0.89464  0.87176  0.84252  Biso   1.000  Co
  Co9      1.0000 0.81911  0.80480  0.74213  Biso   1.000  Co
  Co10     1.0000 0.78696  0.60859  0.89903  Biso   1.000  Co
  Co11     1.0000 0.85540  0.65451  0.98503  Biso   1.000  Co
  Co12     1.0000 0.03531  0.90435  0.69441  Biso   1.000  Co
  P12      1.0000 0.87192  0.92409  0.72968  Biso   1.000  P
  P13      1.0000 0.84916  0.68166  0.87031  Biso   1.000  P
  P14      1.0000 0.94421  0.78121  0.73053  Biso   1.000  P
  P15      1.0000 0.80576  0.88593  0.82930  Biso   1.000  P
  P16      1.0000 0.98269  0.81218  0.90413  Biso   1.000  P
  P17      1.0000 0.87455  0.70301  0.57423  Biso   1.000  P
  P18      1.0000 0.77961  0.75351  0.93589  Biso   1.000  P
  P19      1.0000 0.77372  0.50207  0.80774  Biso   1.000  P
  P20      1.0000 0.79633  0.68236  0.66854  Biso   1.000  P
  P21      1.0000 0.94824  0.62675  0.02327  Biso   1.000  P
  O49      1.0000 0.88410  0.63236  0.57488  Biso   1.000  O
  H29      1.0000 0.86440  0.62130  0.55220  Biso   1.000  H
  O50      1.0000 0.81312  0.64370  0.63502  Biso   1.000  O
  O51      1.0000 0.75451  0.70057  0.63598  Biso   1.000  O
  H30      1.0000 0.74680  0.66500  0.62960  Biso   1.000  H
  O52      1.0000 0.89475  0.82535  0.90504  Biso   1.000  O
  O53      1.0000 0.90346  0.76135  0.72063  Biso   1.000  O
  O54      1.0000 0.90260  0.91777  0.78451  Biso   1.000  O
  O55      1.0000 0.89664  0.84713  0.63701  Biso   1.000  O
  O56      1.0000 0.83266  0.86970  0.80264  Biso   1.000  O
  O57      1.0000 0.94981  0.85375  0.73991  Biso   1.000  O
  O58      1.0000 0.82624  0.74419  0.86938  Biso   1.000  O
  O59      1.0000 0.97532  0.88441  0.66097  Biso   1.000  O
  O60      1.0000 0.88077  0.73936  0.97518  Biso   1.000  O
  O61      1.0000 0.79893  0.63645  0.71167  Biso   1.000  O
  O62      1.0000 0.78334  0.74078  0.76008  Biso   1.000  O
  O63      1.0000 0.89003  0.94933  0.69485  Biso   1.000  O
  O64      1.0000 0.84349  0.63272  0.90779  Biso   1.000  O
  O65      1.0000 0.95509  0.85500  0.86166  Biso   1.000  O
  O66      1.0000 0.81232  0.80248  0.95399  Biso   1.000  O
  O67      1.0000 0.76520  0.65505  0.82751  Biso   1.000  O
  O68      1.0000 0.83521  0.65174  0.81659  Biso   1.000  O
  O69      1.0000 0.84255  0.97771  0.72987  Biso   1.000  O
  O70      1.0000 0.82672  0.88405  0.88794  Biso   1.000  O
  O71      1.0000 0.75238  0.76922  0.96187  Biso   1.000  O
  H31      1.0000 0.73171  0.76900  0.96390  Biso   1.000  H
  O72      1.0000 0.79132  0.95584  0.81685  Biso   1.000  O
  O73      1.0000 0.84983  0.86293  0.71020  Biso   1.000  O
  O74      1.0000 0.96146  0.75805  0.91701  Biso   1.000  O
  O75      1.0000 0.82170  0.74145  0.68889  Biso   1.000  O
  O76      1.0000 0.79730  0.68650  0.94940  Biso   1.000  O
  O77      1.0000 0.95665  0.76341  0.68673  Biso   1.000  O
  O78      1.0000 0.75507  0.76139  0.87833  Biso   1.000  O
  O79      1.0000 0.77062  0.84234  0.81062  Biso   1.000  O
  O80      1.0000 0.85726  0.71888  0.61216  Biso   1.000  O
  O81      1.0000 0.00169  0.85599  0.95292  Biso   1.000  O
  O82      1.0000 0.01412  0.78193  0.89083  Biso   1.000  O
  O83      1.0000 0.89195  0.69780  0.88730  Biso   1.000  O
  O84      1.0000 0.78174  0.52424  0.86242  Biso   1.000  O
  O85      1.0000 0.95000  0.67481  0.98423  Biso   1.000  O
  O86      1.0000 0.96953  0.74420  0.78074  Biso   1.000  O
  O87      1.0000 0.91095  0.73916  0.58348  Biso   1.000  O
  O88      1.0000 0.73396  0.47459  0.78087  Biso   1.000  O
  O89      1.0000 0.78272  0.55253  0.77596  Biso   1.000  O
  O90      1.0000 0.84341  0.72050  0.51958  Biso   1.000  O
  O91      1.0000 0.90768  0.60696  0.01356  Biso   1.000  O
  O92      1.0000 0.80334  0.44585  0.81429  Biso   1.000  O
  O93      1.0000 0.96963  0.56680  0.01781  Biso   1.000  O
  O94      1.0000 0.96874  0.65200  0.07625  Biso   1.000  O
  C26      1.0000 0.87900  0.63370  0.09880  Biso   1.000  C
  H32      1.0000 0.89010  0.59750  0.09180  Biso   1.000  H
  C27      1.0000 0.88280  0.64480  0.14950  Biso   1.000  C
  H33      1.0000 0.89770  0.61800  0.17610  Biso   1.000  H
  C28      1.0000 0.86410  0.69520  0.15880  Biso   1.000  C
  H34      1.0000 0.86590  0.70260  0.19200  Biso   1.000  H
  C29      1.0000 0.84260  0.73530  0.11970  Biso   1.000  C
  H35      1.0000 0.82890  0.76900  0.12540  Biso   1.000  H
  C30      1.0000 0.84208  0.72370  0.07160  Biso   1.000  C
  H36      1.0000 0.82870  0.75180  0.04520  Biso   1.000  H
  C31      1.0000 0.88108  0.01100  0.86130  Biso   1.000  C
  H37      1.0000 0.86390  0.00850  0.82710  Biso   1.000  H
  C32      1.0000 0.88430  0.06850  0.88690  Biso   1.000  C
  H38      1.0000 0.87000  0.10350  0.86960  Biso   1.000  H
  C33      1.0000 0.90800  0.07340  0.93640  Biso   1.000  C
  H39      1.0000 0.91050  0.11140  0.95410  Biso   1.000  H
  C34      1.0000 0.92810  0.02150  0.95980  Biso   1.000  C
  H40      1.0000 0.94480  0.02380  0.99420  Biso   1.000  H
  C35      1.0000 0.92465  0.96490  0.93370  Biso   1.000  C
  H41      1.0000 0.93870  0.92980  0.95130  Biso   1.000  H
  C36      1.0000 0.80536  0.90130  0.59247  Biso   1.000  C
  H42      1.0000 0.82490  0.92720  0.61440  Biso   1.000  H
  C37      1.0000 0.77347  0.92900  0.55470  Biso   1.000  C
  H43      1.0000 0.77200  0.97300  0.55140  Biso   1.000  H
  C38      1.0000 0.74430  0.89230  0.52230  Biso   1.000  C
  H44      1.0000 0.72290  0.91050  0.49650  Biso   1.000  H
  C39      1.0000 0.74743  0.82880  0.52860  Biso   1.000  C
  H45      1.0000 0.72760  0.80260  0.50750  Biso   1.000  H
  C40      1.0000 0.77960  0.80240  0.56602  Biso   1.000  C
  H46      1.0000 0.78120  0.75840  0.56910  Biso   1.000  H
  C41      1.0000 0.70209  0.57610  0.86640  Biso   1.000  C
  H47      1.0000 0.70360  0.56700  0.83530  Biso   1.000  H
  C42      1.0000 0.66712  0.56720  0.87090  Biso   1.000  C
  H48      1.0000 0.64600  0.55100  0.84340  Biso   1.000  H
  C43      1.0000 0.66406  0.58240  0.91550  Biso   1.000  C
  H49      1.0000 0.64070  0.57770  0.91870  Biso   1.000  H
  C44      1.0000 0.69601  0.60470  0.95570  Biso   1.000  C
  H50      1.0000 0.69490  0.61480  0.98690  Biso   1.000  H
  C45      1.0000 0.72987  0.61170  0.94890  Biso   1.000  C
  H51      1.0000 0.75140  0.62740  0.97610  Biso   1.000  H
  O95      1.0000 0.03628  0.98050  0.78314  Biso   1.000  O
  P22      1.0000 0.00603  0.00674  0.73755  Biso   1.000  P
  O96      1.0000 0.02052  0.98800  0.69630  Biso   1.000  O
  C46      1.0000 0.04730  0.04840  0.68100  Biso   1.000  C
  H52      1.0000 0.06530  0.04360  0.71460  Biso   1.000  H
  C47      1.0000 0.04440  0.10580  0.65910  Biso   1.000  C
  H53      1.0000 0.06000  0.13980  0.67590  Biso   1.000  H
  C48      1.0000 0.01660  0.11090  0.61000  Biso   1.000  C
  H54      1.0000 0.01260  0.15000  0.59340  Biso   1.000  H
  C49      1.0000 0.99470  0.06060  0.58490  Biso   1.000  C
  H55      1.0000 0.97620  0.06750  0.55190  Biso   1.000  H
  C50      1.0000 0.99800  0.99950  0.60500  Biso   1.000  C
  H56      1.0000 0.98410  0.96460  0.58690  Biso   1.000  H
  N6       1.0000 0.02587  0.99720  0.65790  Biso   1.000  N
  N7       1.0000 0.86009  0.67370  0.06075  Biso   1.000  N
  N8       1.0000 0.90162  0.95880  0.88366  Biso   1.000  N
  N9       1.0000 0.80890  0.83773  0.59838  Biso   1.000  N
  N10      1.0000 0.73342  0.59734  0.90543  Biso   1.000  N
  O97      1.0000 0.00000  0.07590  0.75000  Biso   1.000  O
  Mo13     1.0000 0.63963  0.31998  0.55926  Biso   1.000  Mo
  Mo14     1.0000 0.72697  0.14898  0.73740  Biso   1.000  Mo
  Mo15     1.0000 0.73944  0.24536  0.68985  Biso   1.000  Mo
  Mo16     1.0000 0.56186  0.32485  0.88543  Biso   1.000  Mo
  Mo17     1.0000 0.57653  0.25934  0.54575  Biso   1.000  Mo
  Mo18     1.0000 0.57030  0.42143  0.83439  Biso   1.000  Mo
  Co13     1.0000 0.64353  0.29555  0.84206  Biso   1.000  Co
  Co14     1.0000 0.60536  0.37176  0.65748  Biso   1.000  Co
  Co15     1.0000 0.68089  0.30480  0.75787  Biso   1.000  Co
  Co16     1.0000 0.71304  0.10859  0.60097  Biso   1.000  Co
  Co17     1.0000 0.64460  0.15451  0.51497  Biso   1.000  Co
  Co18     1.0000 0.46469  0.40435  0.80559  Biso   1.000  Co
  P23      1.0000 0.62808  0.42409  0.77032  Biso   1.000  P
  P24      1.0000 0.65084  0.18166  0.62969  Biso   1.000  P
  P25      1.0000 0.55579  0.28121  0.76947  Biso   1.000  P
  P26      1.0000 0.69424  0.38593  0.67070  Biso   1.000  P
  P27      1.0000 0.51731  0.31218  0.59587  Biso   1.000  P
  P28      1.0000 0.62545  0.20301  0.92577  Biso   1.000  P
  P29      1.0000 0.72039  0.25351  0.56411  Biso   1.000  P
  P30      1.0000 0.72628  0.00207  0.69226  Biso   1.000  P
  P31      1.0000 0.70367  0.18236  0.83146  Biso   1.000  P
  P32      1.0000 0.55176  0.12675  0.47673  Biso   1.000  P
  O98      1.0000 0.61590  0.13236  0.92512  Biso   1.000  O
  H57      1.0000 0.63560  0.12130  0.94780  Biso   1.000  H
  O99      1.0000 0.68688  0.14370  0.86498  Biso   1.000  O
  O100     1.0000 0.74549  0.20057  0.86402  Biso   1.000  O
  H58      1.0000 0.75320  0.16500  0.87040  Biso   1.000  H
  O101     1.0000 0.60525  0.32535  0.59496  Biso   1.000  O
  O102     1.0000 0.59654  0.26135  0.77937  Biso   1.000  O
  O103     1.0000 0.59740  0.41777  0.71549  Biso   1.000  O
  O104     1.0000 0.60336  0.34713  0.86299  Biso   1.000  O
  O105     1.0000 0.66734  0.36970  0.69736  Biso   1.000  O
  O106     1.0000 0.55019  0.35375  0.76009  Biso   1.000  O
  O107     1.0000 0.67376  0.24419  0.63062  Biso   1.000  O
  O108     1.0000 0.52468  0.38441  0.83903  Biso   1.000  O
  O109     1.0000 0.61923  0.23936  0.52482  Biso   1.000  O
  O110     1.0000 0.70107  0.13645  0.78833  Biso   1.000  O
  O111     1.0000 0.71666  0.24078  0.73992  Biso   1.000  O
  O112     1.0000 0.60997  0.44933  0.80515  Biso   1.000  O
  O113     1.0000 0.65651  0.13272  0.59221  Biso   1.000  O
  O114     1.0000 0.54491  0.35500  0.63834  Biso   1.000  O
  O115     1.0000 0.68768  0.30248  0.54601  Biso   1.000  O
  O116     1.0000 0.73480  0.15505  0.67249  Biso   1.000  O
  O117     1.0000 0.66479  0.15174  0.68341  Biso   1.000  O
  O118     1.0000 0.65745  0.47771  0.77013  Biso   1.000  O
  O119     1.0000 0.67328  0.38405  0.61206  Biso   1.000  O
  O120     1.0000 0.74762  0.26922  0.53813  Biso   1.000  O
  H59      1.0000 0.76829  0.26900  0.53610  Biso   1.000  H
  O121     1.0000 0.70868  0.45584  0.68315  Biso   1.000  O
  O122     1.0000 0.65017  0.36293  0.78980  Biso   1.000  O
  O123     1.0000 0.53854  0.25805  0.58299  Biso   1.000  O
  O124     1.0000 0.67830  0.24145  0.81111  Biso   1.000  O
  O125     1.0000 0.70270  0.18650  0.55060  Biso   1.000  O
  O126     1.0000 0.54335  0.26341  0.81327  Biso   1.000  O
  O127     1.0000 0.74493  0.26139  0.62167  Biso   1.000  O
  O128     1.0000 0.72938  0.34234  0.68938  Biso   1.000  O
  O129     1.0000 0.64274  0.21888  0.88784  Biso   1.000  O
  O130     1.0000 0.49831  0.35599  0.54708  Biso   1.000  O
  O131     1.0000 0.48588  0.28193  0.60917  Biso   1.000  O
  O132     1.0000 0.60805  0.19780  0.61270  Biso   1.000  O
  O133     1.0000 0.71826  0.02424  0.63758  Biso   1.000  O
  O134     1.0000 0.55000  0.17481  0.51577  Biso   1.000  O
  O135     1.0000 0.53047  0.24420  0.71926  Biso   1.000  O
  O136     1.0000 0.58905  0.23916  0.91652  Biso   1.000  O
  O137     1.0000 0.76604  0.97459  0.71913  Biso   1.000  O
  O138     1.0000 0.71728  0.05253  0.72404  Biso   1.000  O
  O139     1.0000 0.65659  0.22050  0.98042  Biso   1.000  O
  O140     1.0000 0.59232  0.10696  0.48644  Biso   1.000  O
  O141     1.0000 0.69666  0.94585  0.68571  Biso   1.000  O
  O142     1.0000 0.53037  0.06680  0.48219  Biso   1.000  O
  O143     1.0000 0.53126  0.15200  0.42375  Biso   1.000  O
  C51      1.0000 0.62100  0.13370  0.40120  Biso   1.000  C
  H60      1.0000 0.60990  0.09750  0.40820  Biso   1.000  H
  C52      1.0000 0.61720  0.14480  0.35050  Biso   1.000  C
  H61      1.0000 0.60230  0.11800  0.32390  Biso   1.000  H
  C53      1.0000 0.63590  0.19520  0.34120  Biso   1.000  C
  H62      1.0000 0.63410  0.20260  0.30800  Biso   1.000  H
  C54      1.0000 0.65740  0.23530  0.38030  Biso   1.000  C
  H63      1.0000 0.67110  0.26900  0.37460  Biso   1.000  H
  C55      1.0000 0.65792  0.22370  0.42840  Biso   1.000  C
  H64      1.0000 0.67130  0.25180  0.45480  Biso   1.000  H
  C56      1.0000 0.61892  0.51100  0.63870  Biso   1.000  C
  H65      1.0000 0.63610  0.50850  0.67290  Biso   1.000  H
  C57      1.0000 0.61570  0.56850  0.61310  Biso   1.000  C
  H66      1.0000 0.63000  0.60350  0.63040  Biso   1.000  H
  C58      1.0000 0.59200  0.57340  0.56360  Biso   1.000  C
  H67      1.0000 0.58950  0.61140  0.54590  Biso   1.000  H
  C59      1.0000 0.57190  0.52150  0.54020  Biso   1.000  C
  H68      1.0000 0.55520  0.52380  0.50580  Biso   1.000  H
  C60      1.0000 0.57535  0.46490  0.56630  Biso   1.000  C
  H69      1.0000 0.56130  0.42980  0.54870  Biso   1.000  H
  C61      1.0000 0.69464  0.40130  0.90753  Biso   1.000  C
  H70      1.0000 0.67510  0.42720  0.88560  Biso   1.000  H
  C62      1.0000 0.72653  0.42900  0.94530  Biso   1.000  C
  H71      1.0000 0.72800  0.47300  0.94860  Biso   1.000  H
  C63      1.0000 0.75570  0.39230  0.97770  Biso   1.000  C
  H72      1.0000 0.77710  0.41050  0.00350  Biso   1.000  H
  C64      1.0000 0.75257  0.32880  0.97140  Biso   1.000  C
  H73      1.0000 0.77240  0.30260  0.99250  Biso   1.000  H
  C65      1.0000 0.72040  0.30240  0.93398  Biso   1.000  C
  H74      1.0000 0.71880  0.25840  0.93090  Biso   1.000  H
  C66      1.0000 0.79791  0.07610  0.63360  Biso   1.000  C
  H75      1.0000 0.79640  0.06700  0.66470  Biso   1.000  H
  C67      1.0000 0.83288  0.06720  0.62910  Biso   1.000  C
  H76      1.0000 0.85400  0.05100  0.65660  Biso   1.000  H
  C68      1.0000 0.83594  0.08240  0.58450  Biso   1.000  C
  H77      1.0000 0.85930  0.07770  0.58130  Biso   1.000  H
  C69      1.0000 0.80399  0.10470  0.54430  Biso   1.000  C
  H78      1.0000 0.80510  0.11480  0.51310  Biso   1.000  H
  C70      1.0000 0.77013  0.11170  0.55110  Biso   1.000  C
  H79      1.0000 0.74860  0.12740  0.52390  Biso   1.000  H
  O144     1.0000 0.46372  0.48050  0.71686  Biso   1.000  O
  P33      1.0000 0.49397  0.50674  0.76245  Biso   1.000  P
  O145     1.0000 0.47948  0.48800  0.80370  Biso   1.000  O
  C71      1.0000 0.45270  0.54840  0.81900  Biso   1.000  C
  H80      1.0000 0.43470  0.54360  0.78540  Biso   1.000  H
  C72      1.0000 0.45560  0.60580  0.84090  Biso   1.000  C
  H81      1.0000 0.44000  0.63980  0.82410  Biso   1.000  H
  C73      1.0000 0.48340  0.61090  0.89000  Biso   1.000  C
  H82      1.0000 0.48740  0.65000  0.90660  Biso   1.000  H
  C74      1.0000 0.50530  0.56060  0.91510  Biso   1.000  C
  H83      1.0000 0.52380  0.56750  0.94810  Biso   1.000  H
  C75      1.0000 0.50200  0.49950  0.89500  Biso   1.000  C
  H84      1.0000 0.51590  0.46460  0.91310  Biso   1.000  H
  N11      1.0000 0.47413  0.49720  0.84210  Biso   1.000  N
  N12      1.0000 0.63991  0.17370  0.43925  Biso   1.000  N
  N13      1.0000 0.59838  0.45880  0.61634  Biso   1.000  N
  N14      1.0000 0.69110  0.33773  0.90162  Biso   1.000  N
  N15      1.0000 0.76658  0.09734  0.59457  Biso   1.000  N
  Mo19     1.0000 0.36037  0.31998  0.94074  Biso   1.000  Mo
  Mo20     1.0000 0.27303  0.14898  0.76260  Biso   1.000  Mo
  Mo21     1.0000 0.26056  0.24536  0.81015  Biso   1.000  Mo
  Mo22     1.0000 0.43814  0.32485  0.61457  Biso   1.000  Mo
  Mo23     1.0000 0.42347  0.25934  0.95425  Biso   1.000  Mo
  Mo24     1.0000 0.42970  0.42143  0.66561  Biso   1.000  Mo
  Co19     1.0000 0.35647  0.29555  0.65794  Biso   1.000  Co
  Co20     1.0000 0.39464  0.37176  0.84252  Biso   1.000  Co
  Co21     1.0000 0.31911  0.30480  0.74213  Biso   1.000  Co
  Co22     1.0000 0.28696  0.10859  0.89903  Biso   1.000  Co
  Co23     1.0000 0.35540  0.15451  0.98503  Biso   1.000  Co
  Co24     1.0000 0.53531  0.40435  0.69441  Biso   1.000  Co
  P34      1.0000 0.37192  0.42409  0.72968  Biso   1.000  P
  P35      1.0000 0.34916  0.18166  0.87031  Biso   1.000  P
  P36      1.0000 0.44421  0.28121  0.73053  Biso   1.000  P
  P37      1.0000 0.30576  0.38593  0.82930  Biso   1.000  P
  P38      1.0000 0.48269  0.31218  0.90413  Biso   1.000  P
  P39      1.0000 0.37455  0.20301  0.57423  Biso   1.000  P
  P40      1.0000 0.27961  0.25351  0.93589  Biso   1.000  P
  P41      1.0000 0.27372  0.00207  0.80774  Biso   1.000  P
  P42      1.0000 0.29633  0.18236  0.66854  Biso   1.000  P
  P43      1.0000 0.44824  0.12675  0.02327  Biso   1.000  P
  O146     1.0000 0.38410  0.13236  0.57488  Biso   1.000  O
  H85      1.0000 0.36440  0.12130  0.55220  Biso   1.000  H
  O147     1.0000 0.31312  0.14370  0.63502  Biso   1.000  O
  O148     1.0000 0.25451  0.20057  0.63598  Biso   1.000  O
  H86      1.0000 0.24680  0.16500  0.62960  Biso   1.000  H
  O149     1.0000 0.39475  0.32535  0.90504  Biso   1.000  O
  O150     1.0000 0.40346  0.26135  0.72063  Biso   1.000  O
  O151     1.0000 0.40260  0.41777  0.78451  Biso   1.000  O
  O152     1.0000 0.39664  0.34713  0.63701  Biso   1.000  O
  O153     1.0000 0.33266  0.36970  0.80264  Biso   1.000  O
  O154     1.0000 0.44981  0.35375  0.73991  Biso   1.000  O
  O155     1.0000 0.32624  0.24419  0.86938  Biso   1.000  O
  O156     1.0000 0.47532  0.38441  0.66097  Biso   1.000  O
  O157     1.0000 0.38077  0.23936  0.97518  Biso   1.000  O
  O158     1.0000 0.29893  0.13645  0.71167  Biso   1.000  O
  O159     1.0000 0.28334  0.24078  0.76008  Biso   1.000  O
  O160     1.0000 0.39003  0.44933  0.69485  Biso   1.000  O
  O161     1.0000 0.34349  0.13272  0.90779  Biso   1.000  O
  O162     1.0000 0.45509  0.35500  0.86166  Biso   1.000  O
  O163     1.0000 0.31232  0.30248  0.95399  Biso   1.000  O
  O164     1.0000 0.26520  0.15505  0.82751  Biso   1.000  O
  O165     1.0000 0.33521  0.15174  0.81659  Biso   1.000  O
  O166     1.0000 0.34255  0.47771  0.72987  Biso   1.000  O
  O167     1.0000 0.32672  0.38405  0.88794  Biso   1.000  O
  O168     1.0000 0.25238  0.26922  0.96187  Biso   1.000  O
  H87      1.0000 0.23171  0.26900  0.96390  Biso   1.000  H
  O169     1.0000 0.29132  0.45584  0.81685  Biso   1.000  O
  O170     1.0000 0.34983  0.36293  0.71020  Biso   1.000  O
  O171     1.0000 0.46146  0.25805  0.91701  Biso   1.000  O
  O172     1.0000 0.32170  0.24145  0.68889  Biso   1.000  O
  O173     1.0000 0.29730  0.18650  0.94940  Biso   1.000  O
  O174     1.0000 0.45665  0.26341  0.68673  Biso   1.000  O
  O175     1.0000 0.25507  0.26139  0.87833  Biso   1.000  O
  O176     1.0000 0.27062  0.34234  0.81062  Biso   1.000  O
  O177     1.0000 0.35726  0.21888  0.61216  Biso   1.000  O
  O178     1.0000 0.50169  0.35599  0.95292  Biso   1.000  O
  O179     1.0000 0.51412  0.28193  0.89083  Biso   1.000  O
  O180     1.0000 0.39195  0.19780  0.88730  Biso   1.000  O
  O181     1.0000 0.28174  0.02424  0.86242  Biso   1.000  O
  O182     1.0000 0.45000  0.17481  0.98423  Biso   1.000  O
  O183     1.0000 0.46953  0.24420  0.78074  Biso   1.000  O
  O184     1.0000 0.41095  0.23916  0.58348  Biso   1.000  O
  O185     1.0000 0.23396  0.97459  0.78087  Biso   1.000  O
  O186     1.0000 0.28272  0.05253  0.77596  Biso   1.000  O
  O187     1.0000 0.34341  0.22050  0.51958  Biso   1.000  O
  O188     1.0000 0.40768  0.10696  0.01356  Biso   1.000  O
  O189     1.0000 0.30334  0.94585  0.81429  Biso   1.000  O
  O190     1.0000 0.46963  0.06680  0.01781  Biso   1.000  O
  O191     1.0000 0.46874  0.15200  0.07625  Biso   1.000  O
  C76      1.0000 0.37900  0.13370  0.09880  Biso   1.000  C
  H88      1.0000 0.39010  0.09750  0.09180  Biso   1.000  H
  C77      1.0000 0.38280  0.14480  0.14950  Biso   1.000  C
  H89      1.0000 0.39770  0.11800  0.17610  Biso   1.000  H
  C78      1.0000 0.36410  0.19520  0.15880  Biso   1.000  C
  H90      1.0000 0.36590  0.20260  0.19200  Biso   1.000  H
  C79      1.0000 0.34260  0.23530  0.11970  Biso   1.000  C
  H91      1.0000 0.32890  0.26900  0.12540  Biso   1.000  H
  C80      1.0000 0.34208  0.22370  0.07160  Biso   1.000  C
  H92      1.0000 0.32870  0.25180  0.04520  Biso   1.000  H
  C81      1.0000 0.38108  0.51100  0.86130  Biso   1.000  C
  H93      1.0000 0.36390  0.50850  0.82710  Biso   1.000  H
  C82      1.0000 0.38430  0.56850  0.88690  Biso   1.000  C
  H94      1.0000 0.37000  0.60350  0.86960  Biso   1.000  H
  C83      1.0000 0.40800  0.57340  0.93640  Biso   1.000  C
  H95      1.0000 0.41050  0.61140  0.95410  Biso   1.000  H
  C84      1.0000 0.42810  0.52150  0.95980  Biso   1.000  C
  H96      1.0000 0.44480  0.52380  0.99420  Biso   1.000  H
  C85      1.0000 0.42465  0.46490  0.93370  Biso   1.000  C
  H97      1.0000 0.43870  0.42980  0.95130  Biso   1.000  H
  C86      1.0000 0.30536  0.40130  0.59247  Biso   1.000  C
  H98      1.0000 0.32490  0.42720  0.61440  Biso   1.000  H
  C87      1.0000 0.27347  0.42900  0.55470  Biso   1.000  C
  H99      1.0000 0.27200  0.47300  0.55140  Biso   1.000  H
  C88      1.0000 0.24430  0.39230  0.52230  Biso   1.000  C
  H100     1.0000 0.22290  0.41050  0.49650  Biso   1.000  H
  C89      1.0000 0.24743  0.32880  0.52860  Biso   1.000  C
  H101     1.0000 0.22760  0.30260  0.50750  Biso   1.000  H
  C90      1.0000 0.27960  0.30240  0.56602  Biso   1.000  C
  H102     1.0000 0.28120  0.25840  0.56910  Biso   1.000  H
  C91      1.0000 0.20209  0.07610  0.86640  Biso   1.000  C
  H103     1.0000 0.20360  0.06700  0.83530  Biso   1.000  H
  C92      1.0000 0.16712  0.06720  0.87090  Biso   1.000  C
  H104     1.0000 0.14600  0.05100  0.84340  Biso   1.000  H
  C93      1.0000 0.16406  0.08240  0.91550  Biso   1.000  C
  H105     1.0000 0.14070  0.07770  0.91870  Biso   1.000  H
  C94      1.0000 0.19601  0.10470  0.95570  Biso   1.000  C
  H106     1.0000 0.19490  0.11480  0.98690  Biso   1.000  H
  C95      1.0000 0.22987  0.11170  0.94890  Biso   1.000  C
  H107     1.0000 0.25140  0.12740  0.97610  Biso   1.000  H
  O192     1.0000 0.53628  0.48050  0.78314  Biso   1.000  O
  P44      1.0000 0.50603  0.50674  0.73755  Biso   1.000  P
  O193     1.0000 0.52052  0.48800  0.69630  Biso   1.000  O
  C96      1.0000 0.54730  0.54840  0.68100  Biso   1.000  C
  H108     1.0000 0.56530  0.54360  0.71460  Biso   1.000  H
  C97      1.0000 0.54440  0.60580  0.65910  Biso   1.000  C
  H109     1.0000 0.56000  0.63980  0.67590  Biso   1.000  H
  C98      1.0000 0.51660  0.61090  0.61000  Biso   1.000  C
  H110     1.0000 0.51260  0.65000  0.59340  Biso   1.000  H
  C99      1.0000 0.49470  0.56060  0.58490  Biso   1.000  C
  H111     1.0000 0.47620  0.56750  0.55190  Biso   1.000  H
  C100     1.0000 0.49800  0.49950  0.60500  Biso   1.000  C
  H112     1.0000 0.48410  0.46460  0.58690  Biso   1.000  H
  N16      1.0000 0.52587  0.49720  0.65790  Biso   1.000  N
  N17      1.0000 0.36009  0.17370  0.06075  Biso   1.000  N
  N18      1.0000 0.40162  0.45880  0.88366  Biso   1.000  N
  N19      1.0000 0.30890  0.33773  0.59838  Biso   1.000  N
  N20      1.0000 0.23342  0.09734  0.90543  Biso   1.000  N
  O194     1.0000 0.50000  0.57590  0.75000  Biso   1.000  O
  Mo25     1.0000 0.86037  0.18002  0.44074  Biso   1.000  Mo
  Mo26     1.0000 0.77303  0.35102  0.26260  Biso   1.000  Mo
  Mo27     1.0000 0.76056  0.25464  0.31015  Biso   1.000  Mo
  Mo28     1.0000 0.93814  0.17515  0.11457  Biso   1.000  Mo
  Mo29     1.0000 0.92347  0.24066  0.45425  Biso   1.000  Mo
  Mo30     1.0000 0.92970  0.07857  0.16561  Biso   1.000  Mo
  Co25     1.0000 0.85647  0.20445  0.15794  Biso   1.000  Co
  Co26     1.0000 0.89464  0.12824  0.34252  Biso   1.000  Co
  Co27     1.0000 0.81911  0.19520  0.24213  Biso   1.000  Co
  Co28     1.0000 0.78696  0.39141  0.39903  Biso   1.000  Co
  Co29     1.0000 0.85540  0.34549  0.48503  Biso   1.000  Co
  Co30     1.0000 0.03531  0.09565  0.19441  Biso   1.000  Co
  P45      1.0000 0.87192  0.07591  0.22968  Biso   1.000  P
  P46      1.0000 0.84916  0.31834  0.37031  Biso   1.000  P
  P47      1.0000 0.94421  0.21879  0.23053  Biso   1.000  P
  P48      1.0000 0.80576  0.11407  0.32930  Biso   1.000  P
  P49      1.0000 0.98269  0.18782  0.40413  Biso   1.000  P
  P50      1.0000 0.87455  0.29699  0.07423  Biso   1.000  P
  P51      1.0000 0.77961  0.24649  0.43589  Biso   1.000  P
  P52      1.0000 0.77372  0.49793  0.30774  Biso   1.000  P
  P53      1.0000 0.79633  0.31764  0.16854  Biso   1.000  P
  P54      1.0000 0.94824  0.37325  0.52327  Biso   1.000  P
  O195     1.0000 0.88410  0.36764  0.07488  Biso   1.000  O
  H113     1.0000 0.86440  0.37870  0.05220  Biso   1.000  H
  O196     1.0000 0.81312  0.35630  0.13502  Biso   1.000  O
  O197     1.0000 0.75451  0.29943  0.13598  Biso   1.000  O
  H114     1.0000 0.74680  0.33500  0.12960  Biso   1.000  H
  O198     1.0000 0.89475  0.17465  0.40504  Biso   1.000  O
  O199     1.0000 0.90346  0.23865  0.22063  Biso   1.000  O
  O200     1.0000 0.90260  0.08223  0.28451  Biso   1.000  O
  O201     1.0000 0.89664  0.15287  0.13701  Biso   1.000  O
  O202     1.0000 0.83266  0.13030  0.30264  Biso   1.000  O
  O203     1.0000 0.94981  0.14625  0.23991  Biso   1.000  O
  O204     1.0000 0.82624  0.25581  0.36938  Biso   1.000  O
  O205     1.0000 0.97532  0.11559  0.16097  Biso   1.000  O
  O206     1.0000 0.88077  0.26064  0.47518  Biso   1.000  O
  O207     1.0000 0.79893  0.36355  0.21167  Biso   1.000  O
  O208     1.0000 0.78334  0.25922  0.26008  Biso   1.000  O
  O209     1.0000 0.89003  0.05067  0.19485  Biso   1.000  O
  O210     1.0000 0.84349  0.36728  0.40779  Biso   1.000  O
  O211     1.0000 0.95509  0.14500  0.36166  Biso   1.000  O
  O212     1.0000 0.81232  0.19752  0.45399  Biso   1.000  O
  O213     1.0000 0.76520  0.34495  0.32751  Biso   1.000  O
  O214     1.0000 0.83521  0.34826  0.31659  Biso   1.000  O
  O215     1.0000 0.84255  0.02229  0.22987  Biso   1.000  O
  O216     1.0000 0.82672  0.11595  0.38794  Biso   1.000  O
  O217     1.0000 0.75238  0.23078  0.46187  Biso   1.000  O
  H115     1.0000 0.73171  0.23100  0.46390  Biso   1.000  H
  O218     1.0000 0.79132  0.04416  0.31685  Biso   1.000  O
  O219     1.0000 0.84983  0.13707  0.21020  Biso   1.000  O
  O220     1.0000 0.96146  0.24195  0.41701  Biso   1.000  O
  O221     1.0000 0.82170  0.25855  0.18889  Biso   1.000  O
  O222     1.0000 0.79730  0.31350  0.44940  Biso   1.000  O
  O223     1.0000 0.95665  0.23659  0.18673  Biso   1.000  O
  O224     1.0000 0.75507  0.23861  0.37833  Biso   1.000  O
  O225     1.0000 0.77062  0.15766  0.31062  Biso   1.000  O
  O226     1.0000 0.85726  0.28112  0.11216  Biso   1.000  O
  O227     1.0000 0.00169  0.14401  0.45292  Biso   1.000  O
  O228     1.0000 0.01412  0.21807  0.39083  Biso   1.000  O
  O229     1.0000 0.89195  0.30220  0.38730  Biso   1.000  O
  O230     1.0000 0.78174  0.47576  0.36242  Biso   1.000  O
  O231     1.0000 0.95000  0.32519  0.48423  Biso   1.000  O
  O232     1.0000 0.96953  0.25580  0.28074  Biso   1.000  O
  O233     1.0000 0.91095  0.26084  0.08348  Biso   1.000  O
  O234     1.0000 0.73396  0.52541  0.28087  Biso   1.000  O
  O235     1.0000 0.78272  0.44747  0.27596  Biso   1.000  O
  O236     1.0000 0.84341  0.27950  0.01958  Biso   1.000  O
  O237     1.0000 0.90768  0.39304  0.51356  Biso   1.000  O
  O238     1.0000 0.80334  0.55415  0.31429  Biso   1.000  O
  O239     1.0000 0.96963  0.43320  0.51781  Biso   1.000  O
  O240     1.0000 0.96874  0.34800  0.57625  Biso   1.000  O
  C101     1.0000 0.87900  0.36630  0.59880  Biso   1.000  C
  H116     1.0000 0.89010  0.40250  0.59180  Biso   1.000  H
  C102     1.0000 0.88280  0.35520  0.64950  Biso   1.000  C
  H117     1.0000 0.89770  0.38200  0.67610  Biso   1.000  H
  C103     1.0000 0.86410  0.30480  0.65880  Biso   1.000  C
  H118     1.0000 0.86590  0.29740  0.69200  Biso   1.000  H
  C104     1.0000 0.84260  0.26470  0.61970  Biso   1.000  C
  H119     1.0000 0.82890  0.23100  0.62540  Biso   1.000  H
  C105     1.0000 0.84208  0.27630  0.57160  Biso   1.000  C
  H120     1.0000 0.82870  0.24820  0.54520  Biso   1.000  H
  C106     1.0000 0.88108  0.98900  0.36130  Biso   1.000  C
  H121     1.0000 0.86390  0.99150  0.32710  Biso   1.000  H
  C107     1.0000 0.88430  0.93150  0.38690  Biso   1.000  C
  H122     1.0000 0.87000  0.89650  0.36960  Biso   1.000  H
  C108     1.0000 0.90800  0.92660  0.43640  Biso   1.000  C
  H123     1.0000 0.91050  0.88860  0.45410  Biso   1.000  H
  C109     1.0000 0.92810  0.97850  0.45980  Biso   1.000  C
  H124     1.0000 0.94480  0.97620  0.49420  Biso   1.000  H
  C110     1.0000 0.92465  0.03510  0.43370  Biso   1.000  C
  H125     1.0000 0.93870  0.07020  0.45130  Biso   1.000  H
  C111     1.0000 0.80536  0.09870  0.09247  Biso   1.000  C
  H126     1.0000 0.82490  0.07280  0.11440  Biso   1.000  H
  C112     1.0000 0.77347  0.07100  0.05470  Biso   1.000  C
  H127     1.0000 0.77200  0.02700  0.05140  Biso   1.000  H
  C113     1.0000 0.74430  0.10770  0.02230  Biso   1.000  C
  H128     1.0000 0.72290  0.08950  0.99650  Biso   1.000  H
  C114     1.0000 0.74743  0.17120  0.02860  Biso   1.000  C
  H129     1.0000 0.72760  0.19740  0.00750  Biso   1.000  H
  C115     1.0000 0.77960  0.19760  0.06602  Biso   1.000  C
  H130     1.0000 0.78120  0.24160  0.06910  Biso   1.000  H
  C116     1.0000 0.70209  0.42390  0.36640  Biso   1.000  C
  H131     1.0000 0.70360  0.43300  0.33530  Biso   1.000  H
  C117     1.0000 0.66712  0.43280  0.37090  Biso   1.000  C
  H132     1.0000 0.64600  0.44900  0.34340  Biso   1.000  H
  C118     1.0000 0.66406  0.41760  0.41550  Biso   1.000  C
  H133     1.0000 0.64070  0.42230  0.41870  Biso   1.000  H
  C119     1.0000 0.69601  0.39530  0.45570  Biso   1.000  C
  H134     1.0000 0.69490  0.38520  0.48690  Biso   1.000  H
  C120     1.0000 0.72987  0.38830  0.44890  Biso   1.000  C
  H135     1.0000 0.75140  0.37260  0.47610  Biso   1.000  H
  O241     1.0000 0.03628  0.01950  0.28314  Biso   1.000  O
  P55      1.0000 0.00603  0.99326  0.23755  Biso   1.000  P
  O242     1.0000 0.02052  0.01200  0.19630  Biso   1.000  O
  C121     1.0000 0.04730  0.95160  0.18100  Biso   1.000  C
  H136     1.0000 0.06530  0.95640  0.21460  Biso   1.000  H
  C122     1.0000 0.04440  0.89420  0.15910  Biso   1.000  C
  H137     1.0000 0.06000  0.86020  0.17590  Biso   1.000  H
  C123     1.0000 0.01660  0.88910  0.11000  Biso   1.000  C
  H138     1.0000 0.01260  0.85000  0.09340  Biso   1.000  H
  C124     1.0000 0.99470  0.93940  0.08490  Biso   1.000  C
  H139     1.0000 0.97620  0.93250  0.05190  Biso   1.000  H
  C125     1.0000 0.99800  0.00050  0.10500  Biso   1.000  C
  H140     1.0000 0.98410  0.03540  0.08690  Biso   1.000  H
  N21      1.0000 0.02587  0.00280  0.15790  Biso   1.000  N
  N22      1.0000 0.86009  0.32630  0.56075  Biso   1.000  N
  N23      1.0000 0.90162  0.04120  0.38366  Biso   1.000  N
  N24      1.0000 0.80890  0.16227  0.09838  Biso   1.000  N
  N25      1.0000 0.73342  0.40266  0.40543  Biso   1.000  N
  Mo31     1.0000 0.13963  0.18002  0.05926  Biso   1.000  Mo
  Mo32     1.0000 0.22697  0.35102  0.23740  Biso   1.000  Mo
  Mo33     1.0000 0.23944  0.25464  0.18985  Biso   1.000  Mo
  Mo34     1.0000 0.06186  0.17515  0.38543  Biso   1.000  Mo
  Mo35     1.0000 0.07653  0.24066  0.04575  Biso   1.000  Mo
  Mo36     1.0000 0.07030  0.07857  0.33439  Biso   1.000  Mo
  Co31     1.0000 0.14353  0.20445  0.34206  Biso   1.000  Co
  Co32     1.0000 0.10536  0.12824  0.15748  Biso   1.000  Co
  Co33     1.0000 0.18089  0.19520  0.25787  Biso   1.000  Co
  Co34     1.0000 0.21304  0.39141  0.10097  Biso   1.000  Co
  Co35     1.0000 0.14460  0.34549  0.01497  Biso   1.000  Co
  Co36     1.0000 0.96469  0.09565  0.30559  Biso   1.000  Co
  P56      1.0000 0.12808  0.07591  0.27032  Biso   1.000  P
  P57      1.0000 0.15084  0.31834  0.12969  Biso   1.000  P
  P58      1.0000 0.05579  0.21879  0.26947  Biso   1.000  P
  P59      1.0000 0.19424  0.11407  0.17070  Biso   1.000  P
  P60      1.0000 0.01731  0.18782  0.09587  Biso   1.000  P
  P61      1.0000 0.12545  0.29699  0.42577  Biso   1.000  P
  P62      1.0000 0.22039  0.24649  0.06411  Biso   1.000  P
  P63      1.0000 0.22628  0.49793  0.19226  Biso   1.000  P
  P64      1.0000 0.20367  0.31764  0.33146  Biso   1.000  P
  P65      1.0000 0.05176  0.37325  0.97673  Biso   1.000  P
  O243     1.0000 0.11590  0.36764  0.42512  Biso   1.000  O
  H141     1.0000 0.13560  0.37870  0.44780  Biso   1.000  H
  O244     1.0000 0.18688  0.35630  0.36498  Biso   1.000  O
  O245     1.0000 0.24549  0.29943  0.36402  Biso   1.000  O
  H142     1.0000 0.25320  0.33500  0.37040  Biso   1.000  H
  O246     1.0000 0.10525  0.17465  0.09496  Biso   1.000  O
  O247     1.0000 0.09654  0.23865  0.27937  Biso   1.000  O
  O248     1.0000 0.09740  0.08223  0.21549  Biso   1.000  O
  O249     1.0000 0.10336  0.15287  0.36299  Biso   1.000  O
  O250     1.0000 0.16734  0.13030  0.19736  Biso   1.000  O
  O251     1.0000 0.05019  0.14625  0.26009  Biso   1.000  O
  O252     1.0000 0.17376  0.25581  0.13062  Biso   1.000  O
  O253     1.0000 0.02468  0.11559  0.33903  Biso   1.000  O
  O254     1.0000 0.11923  0.26064  0.02482  Biso   1.000  O
  O255     1.0000 0.20107  0.36355  0.28833  Biso   1.000  O
  O256     1.0000 0.21666  0.25922  0.23992  Biso   1.000  O
  O257     1.0000 0.10997  0.05067  0.30515  Biso   1.000  O
  O258     1.0000 0.15651  0.36728  0.09221  Biso   1.000  O
  O259     1.0000 0.04491  0.14500  0.13834  Biso   1.000  O
  O260     1.0000 0.18768  0.19752  0.04601  Biso   1.000  O
  O261     1.0000 0.23480  0.34495  0.17249  Biso   1.000  O
  O262     1.0000 0.16479  0.34826  0.18341  Biso   1.000  O
  O263     1.0000 0.15745  0.02229  0.27013  Biso   1.000  O
  O264     1.0000 0.17328  0.11595  0.11206  Biso   1.000  O
  O265     1.0000 0.24762  0.23078  0.03813  Biso   1.000  O
  H143     1.0000 0.26829  0.23100  0.03610  Biso   1.000  H
  O266     1.0000 0.20868  0.04416  0.18315  Biso   1.000  O
  O267     1.0000 0.15017  0.13707  0.28980  Biso   1.000  O
  O268     1.0000 0.03854  0.24195  0.08299  Biso   1.000  O
  O269     1.0000 0.17830  0.25855  0.31111  Biso   1.000  O
  O270     1.0000 0.20270  0.31350  0.05060  Biso   1.000  O
  O271     1.0000 0.04335  0.23659  0.31327  Biso   1.000  O
  O272     1.0000 0.24493  0.23861  0.12167  Biso   1.000  O
  O273     1.0000 0.22938  0.15766  0.18938  Biso   1.000  O
  O274     1.0000 0.14274  0.28112  0.38784  Biso   1.000  O
  O275     1.0000 0.99831  0.14401  0.04708  Biso   1.000  O
  O276     1.0000 0.98588  0.21807  0.10917  Biso   1.000  O
  O277     1.0000 0.10805  0.30220  0.11270  Biso   1.000  O
  O278     1.0000 0.21826  0.47576  0.13758  Biso   1.000  O
  O279     1.0000 0.05000  0.32519  0.01577  Biso   1.000  O
  O280     1.0000 0.03047  0.25580  0.21926  Biso   1.000  O
  O281     1.0000 0.08905  0.26084  0.41652  Biso   1.000  O
  O282     1.0000 0.26604  0.52541  0.21913  Biso   1.000  O
  O283     1.0000 0.21728  0.44747  0.22404  Biso   1.000  O
  O284     1.0000 0.15659  0.27950  0.48042  Biso   1.000  O
  O285     1.0000 0.09232  0.39304  0.98644  Biso   1.000  O
  O286     1.0000 0.19666  0.55415  0.18571  Biso   1.000  O
  O287     1.0000 0.03037  0.43320  0.98219  Biso   1.000  O
  O288     1.0000 0.03126  0.34800  0.92375  Biso   1.000  O
  C126     1.0000 0.12100  0.36630  0.90120  Biso   1.000  C
  H144     1.0000 0.10990  0.40250  0.90820  Biso   1.000  H
  C127     1.0000 0.11720  0.35520  0.85050  Biso   1.000  C
  H145     1.0000 0.10230  0.38200  0.82390  Biso   1.000  H
  C128     1.0000 0.13590  0.30480  0.84120  Biso   1.000  C
  H146     1.0000 0.13410  0.29740  0.80800  Biso   1.000  H
  C129     1.0000 0.15740  0.26470  0.88030  Biso   1.000  C
  H147     1.0000 0.17110  0.23100  0.87460  Biso   1.000  H
  C130     1.0000 0.15792  0.27630  0.92840  Biso   1.000  C
  H148     1.0000 0.17130  0.24820  0.95480  Biso   1.000  H
  C131     1.0000 0.11892  0.98900  0.13870  Biso   1.000  C
  H149     1.0000 0.13610  0.99150  0.17290  Biso   1.000  H
  C132     1.0000 0.11570  0.93150  0.11310  Biso   1.000  C
  H150     1.0000 0.13000  0.89650  0.13040  Biso   1.000  H
  C133     1.0000 0.09200  0.92660  0.06360  Biso   1.000  C
  H151     1.0000 0.08950  0.88860  0.04590  Biso   1.000  H
  C134     1.0000 0.07190  0.97850  0.04020  Biso   1.000  C
  H152     1.0000 0.05520  0.97620  0.00580  Biso   1.000  H
  C135     1.0000 0.07535  0.03510  0.06630  Biso   1.000  C
  H153     1.0000 0.06130  0.07020  0.04870  Biso   1.000  H
  C136     1.0000 0.19464  0.09870  0.40753  Biso   1.000  C
  H154     1.0000 0.17510  0.07280  0.38560  Biso   1.000  H
  C137     1.0000 0.22653  0.07100  0.44530  Biso   1.000  C
  H155     1.0000 0.22800  0.02700  0.44860  Biso   1.000  H
  C138     1.0000 0.25570  0.10770  0.47770  Biso   1.000  C
  H156     1.0000 0.27710  0.08950  0.50350  Biso   1.000  H
  C139     1.0000 0.25257  0.17120  0.47140  Biso   1.000  C
  H157     1.0000 0.27240  0.19740  0.49250  Biso   1.000  H
  C140     1.0000 0.22040  0.19760  0.43398  Biso   1.000  C
  H158     1.0000 0.21880  0.24160  0.43090  Biso   1.000  H
  C141     1.0000 0.29791  0.42390  0.13360  Biso   1.000  C
  H159     1.0000 0.29640  0.43300  0.16470  Biso   1.000  H
  C142     1.0000 0.33288  0.43280  0.12910  Biso   1.000  C
  H160     1.0000 0.35400  0.44900  0.15660  Biso   1.000  H
  C143     1.0000 0.33594  0.41760  0.08450  Biso   1.000  C
  H161     1.0000 0.35930  0.42230  0.08130  Biso   1.000  H
  C144     1.0000 0.30399  0.39530  0.04430  Biso   1.000  C
  H162     1.0000 0.30510  0.38520  0.01310  Biso   1.000  H
  C145     1.0000 0.27013  0.38830  0.05110  Biso   1.000  C
  H163     1.0000 0.24860  0.37260  0.02390  Biso   1.000  H
  O289     1.0000 0.96372  0.01950  0.21686  Biso   1.000  O
  P66      1.0000 0.99397  0.99326  0.26245  Biso   1.000  P
  O290     1.0000 0.97948  0.01200  0.30370  Biso   1.000  O
  C146     1.0000 0.95270  0.95160  0.31900  Biso   1.000  C
  H164     1.0000 0.93470  0.95640  0.28540  Biso   1.000  H
  C147     1.0000 0.95560  0.89420  0.34090  Biso   1.000  C
  H165     1.0000 0.94000  0.86020  0.32410  Biso   1.000  H
  C148     1.0000 0.98340  0.88910  0.39000  Biso   1.000  C
  H166     1.0000 0.98740  0.85000  0.40660  Biso   1.000  H
  C149     1.0000 0.00530  0.93940  0.41510  Biso   1.000  C
  H167     1.0000 0.02380  0.93250  0.44810  Biso   1.000  H
  C150     1.0000 0.00200  0.00050  0.39500  Biso   1.000  C
  H168     1.0000 0.01590  0.03540  0.41310  Biso   1.000  H
  N26      1.0000 0.97413  0.00280  0.34210  Biso   1.000  N
  N27      1.0000 0.13991  0.32630  0.93925  Biso   1.000  N
  N28      1.0000 0.09838  0.04120  0.11634  Biso   1.000  N
  N29      1.0000 0.19110  0.16227  0.40162  Biso   1.000  N
  N30      1.0000 0.26658  0.40266  0.09457  Biso   1.000  N
  O291     1.0000 0.00000  0.92410  0.25000  Biso   1.000  O
  Mo37     1.0000 0.36037  0.68002  0.44074  Biso   1.000  Mo
  Mo38     1.0000 0.27303  0.85102  0.26260  Biso   1.000  Mo
  Mo39     1.0000 0.26056  0.75464  0.31015  Biso   1.000  Mo
  Mo40     1.0000 0.43814  0.67515  0.11457  Biso   1.000  Mo
  Mo41     1.0000 0.42347  0.74066  0.45425  Biso   1.000  Mo
  Mo42     1.0000 0.42970  0.57857  0.16561  Biso   1.000  Mo
  Co37     1.0000 0.35647  0.70445  0.15794  Biso   1.000  Co
  Co38     1.0000 0.39464  0.62824  0.34252  Biso   1.000  Co
  Co39     1.0000 0.31911  0.69520  0.24213  Biso   1.000  Co
  Co40     1.0000 0.28696  0.89141  0.39903  Biso   1.000  Co
  Co41     1.0000 0.35540  0.84549  0.48503  Biso   1.000  Co
  Co42     1.0000 0.53531  0.59565  0.19441  Biso   1.000  Co
  P67      1.0000 0.37192  0.57591  0.22968  Biso   1.000  P
  P68      1.0000 0.34916  0.81834  0.37031  Biso   1.000  P
  P69      1.0000 0.44421  0.71879  0.23053  Biso   1.000  P
  P70      1.0000 0.30576  0.61407  0.32930  Biso   1.000  P
  P71      1.0000 0.48269  0.68782  0.40413  Biso   1.000  P
  P72      1.0000 0.37455  0.79699  0.07423  Biso   1.000  P
  P73      1.0000 0.27961  0.74649  0.43589  Biso   1.000  P
  P74      1.0000 0.27372  0.99793  0.30774  Biso   1.000  P
  P75      1.0000 0.29633  0.81764  0.16854  Biso   1.000  P
  P76      1.0000 0.44824  0.87325  0.52327  Biso   1.000  P
  O292     1.0000 0.38410  0.86764  0.07488  Biso   1.000  O
  H169     1.0000 0.36440  0.87870  0.05220  Biso   1.000  H
  O293     1.0000 0.31312  0.85630  0.13502  Biso   1.000  O
  O294     1.0000 0.25451  0.79943  0.13598  Biso   1.000  O
  H170     1.0000 0.24680  0.83500  0.12960  Biso   1.000  H
  O295     1.0000 0.39475  0.67465  0.40504  Biso   1.000  O
  O296     1.0000 0.40346  0.73865  0.22063  Biso   1.000  O
  O297     1.0000 0.40260  0.58223  0.28451  Biso   1.000  O
  O298     1.0000 0.39664  0.65287  0.13701  Biso   1.000  O
  O299     1.0000 0.33266  0.63030  0.30264  Biso   1.000  O
  O300     1.0000 0.44981  0.64625  0.23991  Biso   1.000  O
  O301     1.0000 0.32624  0.75581  0.36938  Biso   1.000  O
  O302     1.0000 0.47532  0.61559  0.16097  Biso   1.000  O
  O303     1.0000 0.38077  0.76064  0.47518  Biso   1.000  O
  O304     1.0000 0.29893  0.86355  0.21167  Biso   1.000  O
  O305     1.0000 0.28334  0.75922  0.26008  Biso   1.000  O
  O306     1.0000 0.39003  0.55067  0.19485  Biso   1.000  O
  O307     1.0000 0.34349  0.86728  0.40779  Biso   1.000  O
  O308     1.0000 0.45509  0.64500  0.36166  Biso   1.000  O
  O309     1.0000 0.31232  0.69752  0.45399  Biso   1.000  O
  O310     1.0000 0.26520  0.84495  0.32751  Biso   1.000  O
  O311     1.0000 0.33521  0.84826  0.31659  Biso   1.000  O
  O312     1.0000 0.34255  0.52229  0.22987  Biso   1.000  O
  O313     1.0000 0.32672  0.61595  0.38794  Biso   1.000  O
  O314     1.0000 0.25238  0.73078  0.46187  Biso   1.000  O
  H171     1.0000 0.23171  0.73100  0.46390  Biso   1.000  H
  O315     1.0000 0.29132  0.54416  0.31685  Biso   1.000  O
  O316     1.0000 0.34983  0.63707  0.21020  Biso   1.000  O
  O317     1.0000 0.46146  0.74195  0.41701  Biso   1.000  O
  O318     1.0000 0.32170  0.75855  0.18889  Biso   1.000  O
  O319     1.0000 0.29730  0.81350  0.44940  Biso   1.000  O
  O320     1.0000 0.45665  0.73659  0.18673  Biso   1.000  O
  O321     1.0000 0.25507  0.73861  0.37833  Biso   1.000  O
  O322     1.0000 0.27062  0.65766  0.31062  Biso   1.000  O
  O323     1.0000 0.35726  0.78112  0.11216  Biso   1.000  O
  O324     1.0000 0.50169  0.64401  0.45292  Biso   1.000  O
  O325     1.0000 0.51412  0.71807  0.39083  Biso   1.000  O
  O326     1.0000 0.39195  0.80220  0.38730  Biso   1.000  O
  O327     1.0000 0.28174  0.97576  0.36242  Biso   1.000  O
  O328     1.0000 0.45000  0.82519  0.48423  Biso   1.000  O
  O329     1.0000 0.46953  0.75580  0.28074  Biso   1.000  O
  O330     1.0000 0.41095  0.76084  0.08348  Biso   1.000  O
  O331     1.0000 0.23396  0.02541  0.28087  Biso   1.000  O
  O332     1.0000 0.28272  0.94747  0.27596  Biso   1.000  O
  O333     1.0000 0.34341  0.77950  0.01958  Biso   1.000  O
  O334     1.0000 0.40768  0.89304  0.51356  Biso   1.000  O
  O335     1.0000 0.30334  0.05415  0.31429  Biso   1.000  O
  O336     1.0000 0.46963  0.93320  0.51781  Biso   1.000  O
  O337     1.0000 0.46874  0.84800  0.57625  Biso   1.000  O
  C151     1.0000 0.37900  0.86630  0.59880  Biso   1.000  C
  H172     1.0000 0.39010  0.90250  0.59180  Biso   1.000  H
  C152     1.0000 0.38280  0.85520  0.64950  Biso   1.000  C
  H173     1.0000 0.39770  0.88200  0.67610  Biso   1.000  H
  C153     1.0000 0.36410  0.80480  0.65880  Biso   1.000  C
  H174     1.0000 0.36590  0.79740  0.69200  Biso   1.000  H
  C154     1.0000 0.34260  0.76470  0.61970  Biso   1.000  C
  H175     1.0000 0.32890  0.73100  0.62540  Biso   1.000  H
  C155     1.0000 0.34208  0.77630  0.57160  Biso   1.000  C
  H176     1.0000 0.32870  0.74820  0.54520  Biso   1.000  H
  C156     1.0000 0.38108  0.48900  0.36130  Biso   1.000  C
  H177     1.0000 0.36390  0.49150  0.32710  Biso   1.000  H
  C157     1.0000 0.38430  0.43150  0.38690  Biso   1.000  C
  H178     1.0000 0.37000  0.39650  0.36960  Biso   1.000  H
  C158     1.0000 0.40800  0.42660  0.43640  Biso   1.000  C
  H179     1.0000 0.41050  0.38860  0.45410  Biso   1.000  H
  C159     1.0000 0.42810  0.47850  0.45980  Biso   1.000  C
  H180     1.0000 0.44480  0.47620  0.49420  Biso   1.000  H
  C160     1.0000 0.42465  0.53510  0.43370  Biso   1.000  C
  H181     1.0000 0.43870  0.57020  0.45130  Biso   1.000  H
  C161     1.0000 0.30536  0.59870  0.09247  Biso   1.000  C
  H182     1.0000 0.32490  0.57280  0.11440  Biso   1.000  H
  C162     1.0000 0.27347  0.57100  0.05470  Biso   1.000  C
  H183     1.0000 0.27200  0.52700  0.05140  Biso   1.000  H
  C163     1.0000 0.24430  0.60770  0.02230  Biso   1.000  C
  H184     1.0000 0.22290  0.58950  0.99650  Biso   1.000  H
  C164     1.0000 0.24743  0.67120  0.02860  Biso   1.000  C
  H185     1.0000 0.22760  0.69740  0.00750  Biso   1.000  H
  C165     1.0000 0.27960  0.69760  0.06602  Biso   1.000  C
  H186     1.0000 0.28120  0.74160  0.06910  Biso   1.000  H
  C166     1.0000 0.20209  0.92390  0.36640  Biso   1.000  C
  H187     1.0000 0.20360  0.93300  0.33530  Biso   1.000  H
  C167     1.0000 0.16712  0.93280  0.37090  Biso   1.000  C
  H188     1.0000 0.14600  0.94900  0.34340  Biso   1.000  H
  C168     1.0000 0.16406  0.91760  0.41550  Biso   1.000  C
  H189     1.0000 0.14070  0.92230  0.41870  Biso   1.000  H
  C169     1.0000 0.19601  0.89530  0.45570  Biso   1.000  C
  H190     1.0000 0.19490  0.88520  0.48690  Biso   1.000  H
  C170     1.0000 0.22987  0.88830  0.44890  Biso   1.000  C
  H191     1.0000 0.25140  0.87260  0.47610  Biso   1.000  H
  O338     1.0000 0.53628  0.51950  0.28314  Biso   1.000  O
  P77      1.0000 0.50603  0.49326  0.23755  Biso   1.000  P
  O339     1.0000 0.52052  0.51200  0.19630  Biso   1.000  O
  C171     1.0000 0.54730  0.45160  0.18100  Biso   1.000  C
  H192     1.0000 0.56530  0.45640  0.21460  Biso   1.000  H
  C172     1.0000 0.54440  0.39420  0.15910  Biso   1.000  C
  H193     1.0000 0.56000  0.36020  0.17590  Biso   1.000  H
  C173     1.0000 0.51660  0.38910  0.11000  Biso   1.000  C
  H194     1.0000 0.51260  0.35000  0.09340  Biso   1.000  H
  C174     1.0000 0.49470  0.43940  0.08490  Biso   1.000  C
  H195     1.0000 0.47620  0.43250  0.05190  Biso   1.000  H
  C175     1.0000 0.49800  0.50050  0.10500  Biso   1.000  C
  H196     1.0000 0.48410  0.53540  0.08690  Biso   1.000  H
  N31      1.0000 0.52587  0.50280  0.15790  Biso   1.000  N
  N32      1.0000 0.36009  0.82630  0.56075  Biso   1.000  N
  N33      1.0000 0.40162  0.54120  0.38366  Biso   1.000  N
  N34      1.0000 0.30890  0.66227  0.09838  Biso   1.000  N
  N35      1.0000 0.23342  0.90266  0.40543  Biso   1.000  N
  Mo43     1.0000 0.63963  0.68002  0.05926  Biso   1.000  Mo
  Mo44     1.0000 0.72697  0.85102  0.23740  Biso   1.000  Mo
  Mo45     1.0000 0.73944  0.75464  0.18985  Biso   1.000  Mo
  Mo46     1.0000 0.56186  0.67515  0.38543  Biso   1.000  Mo
  Mo47     1.0000 0.57653  0.74066  0.04575  Biso   1.000  Mo
  Mo48     1.0000 0.57030  0.57857  0.33439  Biso   1.000  Mo
  Co43     1.0000 0.64353  0.70445  0.34206  Biso   1.000  Co
  Co44     1.0000 0.60536  0.62824  0.15748  Biso   1.000  Co
  Co45     1.0000 0.68089  0.69520  0.25787  Biso   1.000  Co
  Co46     1.0000 0.71304  0.89141  0.10097  Biso   1.000  Co
  Co47     1.0000 0.64460  0.84549  0.01497  Biso   1.000  Co
  Co48     1.0000 0.46469  0.59565  0.30559  Biso   1.000  Co
  P78      1.0000 0.62808  0.57591  0.27032  Biso   1.000  P
  P79      1.0000 0.65084  0.81834  0.12969  Biso   1.000  P
  P80      1.0000 0.55579  0.71879  0.26947  Biso   1.000  P
  P81      1.0000 0.69424  0.61407  0.17070  Biso   1.000  P
  P82      1.0000 0.51731  0.68782  0.09587  Biso   1.000  P
  P83      1.0000 0.62545  0.79699  0.42577  Biso   1.000  P
  P84      1.0000 0.72039  0.74649  0.06411  Biso   1.000  P
  P85      1.0000 0.72628  0.99793  0.19226  Biso   1.000  P
  P86      1.0000 0.70367  0.81764  0.33146  Biso   1.000  P
  P87      1.0000 0.55176  0.87325  0.97673  Biso   1.000  P
  O340     1.0000 0.61590  0.86764  0.42512  Biso   1.000  O
  H197     1.0000 0.63560  0.87870  0.44780  Biso   1.000  H
  O341     1.0000 0.68688  0.85630  0.36498  Biso   1.000  O
  O342     1.0000 0.74549  0.79943  0.36402  Biso   1.000  O
  H198     1.0000 0.75320  0.83500  0.37040  Biso   1.000  H
  O343     1.0000 0.60525  0.67465  0.09496  Biso   1.000  O
  O344     1.0000 0.59654  0.73865  0.27937  Biso   1.000  O
  O345     1.0000 0.59740  0.58223  0.21549  Biso   1.000  O
  O346     1.0000 0.60336  0.65287  0.36299  Biso   1.000  O
  O347     1.0000 0.66734  0.63030  0.19736  Biso   1.000  O
  O348     1.0000 0.55019  0.64625  0.26009  Biso   1.000  O
  O349     1.0000 0.67376  0.75581  0.13062  Biso   1.000  O
  O350     1.0000 0.52468  0.61559  0.33903  Biso   1.000  O
  O351     1.0000 0.61923  0.76064  0.02482  Biso   1.000  O
  O352     1.0000 0.70107  0.86355  0.28833  Biso   1.000  O
  O353     1.0000 0.71666  0.75922  0.23992  Biso   1.000  O
  O354     1.0000 0.60997  0.55067  0.30515  Biso   1.000  O
  O355     1.0000 0.65651  0.86728  0.09221  Biso   1.000  O
  O356     1.0000 0.54491  0.64500  0.13834  Biso   1.000  O
  O357     1.0000 0.68768  0.69752  0.04601  Biso   1.000  O
  O358     1.0000 0.73480  0.84495  0.17249  Biso   1.000  O
  O359     1.0000 0.66479  0.84826  0.18341  Biso   1.000  O
  O360     1.0000 0.65745  0.52229  0.27013  Biso   1.000  O
  O361     1.0000 0.67328  0.61595  0.11206  Biso   1.000  O
  O362     1.0000 0.74762  0.73078  0.03813  Biso   1.000  O
  H199     1.0000 0.76829  0.73100  0.03610  Biso   1.000  H
  O363     1.0000 0.70868  0.54416  0.18315  Biso   1.000  O
  O364     1.0000 0.65017  0.63707  0.28980  Biso   1.000  O
  O365     1.0000 0.53854  0.74195  0.08299  Biso   1.000  O
  O366     1.0000 0.67830  0.75855  0.31111  Biso   1.000  O
  O367     1.0000 0.70270  0.81350  0.05060  Biso   1.000  O
  O368     1.0000 0.54335  0.73659  0.31327  Biso   1.000  O
  O369     1.0000 0.74493  0.73861  0.12167  Biso   1.000  O
  O370     1.0000 0.72938  0.65766  0.18938  Biso   1.000  O
  O371     1.0000 0.64274  0.78112  0.38784  Biso   1.000  O
  O372     1.0000 0.49831  0.64401  0.04708  Biso   1.000  O
  O373     1.0000 0.48588  0.71807  0.10917  Biso   1.000  O
  O374     1.0000 0.60805  0.80220  0.11270  Biso   1.000  O
  O375     1.0000 0.71826  0.97576  0.13758  Biso   1.000  O
  O376     1.0000 0.55000  0.82519  0.01577  Biso   1.000  O
  O377     1.0000 0.53047  0.75580  0.21926  Biso   1.000  O
  O378     1.0000 0.58905  0.76084  0.41652  Biso   1.000  O
  O379     1.0000 0.76604  0.02541  0.21913  Biso   1.000  O
  O380     1.0000 0.71728  0.94747  0.22404  Biso   1.000  O
  O381     1.0000 0.65659  0.77950  0.48042  Biso   1.000  O
  O382     1.0000 0.59232  0.89304  0.98644  Biso   1.000  O
  O383     1.0000 0.69666  0.05415  0.18571  Biso   1.000  O
  O384     1.0000 0.53037  0.93320  0.98219  Biso   1.000  O
  O385     1.0000 0.53126  0.84800  0.92375  Biso   1.000  O
  C176     1.0000 0.62100  0.86630  0.90120  Biso   1.000  C
  H200     1.0000 0.60990  0.90250  0.90820  Biso   1.000  H
  C177     1.0000 0.61720  0.85520  0.85050  Biso   1.000  C
  H201     1.0000 0.60230  0.88200  0.82390  Biso   1.000  H
  C178     1.0000 0.63590  0.80480  0.84120  Biso   1.000  C
  H202     1.0000 0.63410  0.79740  0.80800  Biso   1.000  H
  C179     1.0000 0.65740  0.76470  0.88030  Biso   1.000  C
  H203     1.0000 0.67110  0.73100  0.87460  Biso   1.000  H
  C180     1.0000 0.65792  0.77630  0.92840  Biso   1.000  C
  H204     1.0000 0.67130  0.74820  0.95480  Biso   1.000  H
  C181     1.0000 0.61892  0.48900  0.13870  Biso   1.000  C
  H205     1.0000 0.63610  0.49150  0.17290  Biso   1.000  H
  C182     1.0000 0.61570  0.43150  0.11310  Biso   1.000  C
  H206     1.0000 0.63000  0.39650  0.13040  Biso   1.000  H
  C183     1.0000 0.59200  0.42660  0.06360  Biso   1.000  C
  H207     1.0000 0.58950  0.38860  0.04590  Biso   1.000  H
  C184     1.0000 0.57190  0.47850  0.04020  Biso   1.000  C
  H208     1.0000 0.55520  0.47620  0.00580  Biso   1.000  H
  C185     1.0000 0.57535  0.53510  0.06630  Biso   1.000  C
  H209     1.0000 0.56130  0.57020  0.04870  Biso   1.000  H
  C186     1.0000 0.69464  0.59870  0.40753  Biso   1.000  C
  H210     1.0000 0.67510  0.57280  0.38560  Biso   1.000  H
  C187     1.0000 0.72653  0.57100  0.44530  Biso   1.000  C
  H211     1.0000 0.72800  0.52700  0.44860  Biso   1.000  H
  C188     1.0000 0.75570  0.60770  0.47770  Biso   1.000  C
  H212     1.0000 0.77710  0.58950  0.50350  Biso   1.000  H
  C189     1.0000 0.75257  0.67120  0.47140  Biso   1.000  C
  H213     1.0000 0.77240  0.69740  0.49250  Biso   1.000  H
  C190     1.0000 0.72040  0.69760  0.43398  Biso   1.000  C
  H214     1.0000 0.71880  0.74160  0.43090  Biso   1.000  H
  C191     1.0000 0.79791  0.92390  0.13360  Biso   1.000  C
  H215     1.0000 0.79640  0.93300  0.16470  Biso   1.000  H
  C192     1.0000 0.83288  0.93280  0.12910  Biso   1.000  C
  H216     1.0000 0.85400  0.94900  0.15660  Biso   1.000  H
  C193     1.0000 0.83594  0.91760  0.08450  Biso   1.000  C
  H217     1.0000 0.85930  0.92230  0.08130  Biso   1.000  H
  C194     1.0000 0.80399  0.89530  0.04430  Biso   1.000  C
  H218     1.0000 0.80510  0.88520  0.01310  Biso   1.000  H
  C195     1.0000 0.77013  0.88830  0.05110  Biso   1.000  C
  H219     1.0000 0.74860  0.87260  0.02390  Biso   1.000  H
  O386     1.0000 0.46372  0.51950  0.21686  Biso   1.000  O
  P88      1.0000 0.49397  0.49326  0.26245  Biso   1.000  P
  O387     1.0000 0.47948  0.51200  0.30370  Biso   1.000  O
  C196     1.0000 0.45270  0.45160  0.31900  Biso   1.000  C
  H220     1.0000 0.43470  0.45640  0.28540  Biso   1.000  H
  C197     1.0000 0.45560  0.39420  0.34090  Biso   1.000  C
  H221     1.0000 0.44000  0.36020  0.32410  Biso   1.000  H
  C198     1.0000 0.48340  0.38910  0.39000  Biso   1.000  C
  H222     1.0000 0.48740  0.35000  0.40660  Biso   1.000  H
  C199     1.0000 0.50530  0.43940  0.41510  Biso   1.000  C
  H223     1.0000 0.52380  0.43250  0.44810  Biso   1.000  H
  C200     1.0000 0.50200  0.50050  0.39500  Biso   1.000  C
  H224     1.0000 0.51590  0.53540  0.41310  Biso   1.000  H
  N36      1.0000 0.47413  0.50280  0.34210  Biso   1.000  N
  N37      1.0000 0.63991  0.82630  0.93925  Biso   1.000  N
  N38      1.0000 0.59838  0.54120  0.11634  Biso   1.000  N
  N39      1.0000 0.69110  0.66227  0.40162  Biso   1.000  N
  N40      1.0000 0.76658  0.90266  0.09457  Biso   1.000  N
  O388     1.0000 0.50000  0.42410  0.25000  Biso   1.000  O
