data_image0
_cell_length_a       14.39
_cell_length_b       21.747
_cell_length_c       43.383
_cell_angle_alpha    90
_cell_angle_beta     90
_cell_angle_gamma    90

_symmetry_space_group_name_H-M    "P 1"
_symmetry_int_tables_number       1

loop_
  _symmetry_equiv_pos_as_xyz
  'x, y, z'

loop_
  _atom_site_label
  _atom_site_occupancy
  _atom_site_fract_x
  _atom_site_fract_y
  _atom_site_fract_z
  _atom_site_thermal_displace_type
  _atom_site_B_iso_or_equiv
  _atom_site_type_symbol
  P1       1.0000 0.13153  0.30323  0.08967  Biso   1.000  P
  Zn1      1.0000 0.91577  0.34584  0.08242  Biso   1.000  Zn
  C1       1.0000 0.89170  0.43290  0.03751  Biso   1.000  C
  C2       1.0000 0.87630  0.45480  0.00523  Biso   1.000  C
  C3       1.0000 0.85260  0.41300  0.98195  Biso   1.000  C
  H1       1.0000 0.84470  0.37170  0.98670  Biso   1.000  H
  C4       1.0000 0.84100  0.43290  0.95176  Biso   1.000  C
  H2       1.0000 0.82580  0.40520  0.93620  Biso   1.000  H
  C5       1.0000 0.85220  0.49340  0.94551  Biso   1.000  C
  C6       1.0000 0.87110  0.53640  0.96790  Biso   1.000  C
  H3       1.0000 0.87480  0.57790  0.96300  Biso   1.000  H
  C7       1.0000 0.88460  0.51660  0.99797  Biso   1.000  C
  H4       1.0000 0.89930  0.54480  0.01330  Biso   1.000  H
  C8       1.0000 0.75430  0.51850  0.90156  Biso   1.000  C
  H5       1.0000 0.70310  0.50920  0.91370  Biso   1.000  H
  C9       1.0000 0.74200  0.53630  0.87176  Biso   1.000  C
  H6       1.0000 0.68230  0.53910  0.86370  Biso   1.000  H
  C10      1.0000 0.81780  0.55030  0.85354  Biso   1.000  C
  C11      1.0000 0.90470  0.54600  0.86613  Biso   1.000  C
  H7       1.0000 0.95690  0.55550  0.85440  Biso   1.000  H
  C12      1.0000 0.91480  0.52730  0.89690  Biso   1.000  C
  H8       1.0000 0.97370  0.52400  0.90560  Biso   1.000  H
  C13      1.0000 0.80380  0.56880  0.82059  Biso   1.000  C
  C14      1.0000 0.72670  0.54460  0.80466  Biso   1.000  C
  H9       1.0000 0.68680  0.51720  0.81440  Biso   1.000  H
  C15      1.0000 0.71110  0.56170  0.77470  Biso   1.000  C
  H10      1.0000 0.65750  0.54840  0.76480  Biso   1.000  H
  C16      1.0000 0.84670  0.62010  0.77431  Biso   1.000  C
  H11      1.0000 0.88880  0.64500  0.76390  Biso   1.000  H
  C17      1.0000 0.86010  0.60650  0.80447  Biso   1.000  C
  H12      1.0000 0.91070  0.62390  0.81450  Biso   1.000  H
  C18      1.0000 0.73500  0.60700  0.81150  Biso   1.000  C
  H13      1.0000 0.69140  0.62080  0.82560  Biso   1.000  H
  C19      1.0000 0.73100  0.62500  0.78200  Biso   1.000  C
  H14      1.0000 0.69590  0.65960  0.77730  Biso   1.000  H
  C20      1.0000 0.85070  0.56830  0.76820  Biso   1.000  C
  H15      1.0000 0.89360  0.55710  0.75320  Biso   1.000  H
  C21      1.0000 0.86930  0.55450  0.79850  Biso   1.000  C
  H16      1.0000 0.92500  0.53590  0.80410  Biso   1.000  H
  C22      1.0000 0.75400  0.60760  0.72667  Biso   1.000  C
  C23      1.0000 0.66620  0.61980  0.71802  Biso   1.000  C
  H17      1.0000 0.61960  0.62450  0.73270  Biso   1.000  H
  C24      1.0000 0.64610  0.62550  0.68649  Biso   1.000  C
  H18      1.0000 0.58570  0.63330  0.68000  Biso   1.000  H
  C25      1.0000 0.71630  0.61940  0.66530  Biso   1.000  C
  C26      1.0000 0.80470  0.61320  0.67532  Biso   1.000  C
  H19      1.0000 0.85290  0.61220  0.66100  Biso   1.000  H
  C27      1.0000 0.82540  0.60830  0.70671  Biso   1.000  C
  H20      1.0000 0.88650  0.60560  0.71360  Biso   1.000  H
  C28      1.0000 0.69470  0.62490  0.63071  Biso   1.000  C
  O1       1.0000 0.88310  0.37488  0.04166  Biso   1.000  O
  O2       1.0000 0.90900  0.47009  0.05848  Biso   1.000  O
  O3       1.0000 0.75870  0.62950  0.61242  Biso   1.000  O
  O4       1.0000 0.60900  0.62490  0.62417  Biso   1.000  O
  O5       1.0000 0.05280  0.34350  0.08193  Biso   1.000  O
  O6       1.0000 0.21830  0.33800  0.07993  Biso   1.000  O
  O7       1.0000 0.12650  0.24030  0.08071  Biso   1.000  O
  N1       1.0000 0.84080  0.51431  0.91350  Biso   1.000  N
  N2       1.0000 0.77260  0.59750  0.75960  Biso   1.000  N
  F1       1.0000 0.14400  0.30300  0.12763  Biso   1.000  F
  P2       1.0000 0.63153  0.80323  0.58967  Biso   1.000  P
  Zn2      1.0000 0.41577  0.84584  0.58242  Biso   1.000  Zn
  C29      1.0000 0.39170  0.93290  0.53751  Biso   1.000  C
  C30      1.0000 0.37630  0.95480  0.50523  Biso   1.000  C
  C31      1.0000 0.35260  0.91300  0.48195  Biso   1.000  C
  H21      1.0000 0.34470  0.87170  0.48670  Biso   1.000  H
  C32      1.0000 0.34100  0.93290  0.45176  Biso   1.000  C
  H22      1.0000 0.32580  0.90520  0.43620  Biso   1.000  H
  C33      1.0000 0.35220  0.99340  0.44551  Biso   1.000  C
  C34      1.0000 0.37110  0.03640  0.46790  Biso   1.000  C
  H23      1.0000 0.37480  0.07790  0.46300  Biso   1.000  H
  C35      1.0000 0.38460  0.01660  0.49797  Biso   1.000  C
  H24      1.0000 0.39930  0.04480  0.51330  Biso   1.000  H
  C36      1.0000 0.25430  0.01850  0.40156  Biso   1.000  C
  H25      1.0000 0.20310  0.00920  0.41370  Biso   1.000  H
  C37      1.0000 0.24200  0.03630  0.37176  Biso   1.000  C
  H26      1.0000 0.18230  0.03910  0.36370  Biso   1.000  H
  C38      1.0000 0.31780  0.05030  0.35354  Biso   1.000  C
  C39      1.0000 0.40470  0.04600  0.36613  Biso   1.000  C
  H27      1.0000 0.45690  0.05550  0.35440  Biso   1.000  H
  C40      1.0000 0.41480  0.02730  0.39690  Biso   1.000  C
  H28      1.0000 0.47370  0.02400  0.40560  Biso   1.000  H
  C41      1.0000 0.30380  0.06880  0.32059  Biso   1.000  C
  C42      1.0000 0.22670  0.04460  0.30466  Biso   1.000  C
  H29      1.0000 0.18680  0.01720  0.31440  Biso   1.000  H
  C43      1.0000 0.21110  0.06170  0.27470  Biso   1.000  C
  H30      1.0000 0.15750  0.04840  0.26480  Biso   1.000  H
  C44      1.0000 0.34670  0.12010  0.27431  Biso   1.000  C
  H31      1.0000 0.38880  0.14500  0.26390  Biso   1.000  H
  C45      1.0000 0.36010  0.10650  0.30447  Biso   1.000  C
  H32      1.0000 0.41070  0.12390  0.31450  Biso   1.000  H
  C46      1.0000 0.23500  0.10700  0.31150  Biso   1.000  C
  H33      1.0000 0.19140  0.12080  0.32560  Biso   1.000  H
  C47      1.0000 0.23100  0.12500  0.28200  Biso   1.000  C
  H34      1.0000 0.19590  0.15960  0.27730  Biso   1.000  H
  C48      1.0000 0.35070  0.06830  0.26820  Biso   1.000  C
  H35      1.0000 0.39360  0.05710  0.25320  Biso   1.000  H
  C49      1.0000 0.36930  0.05450  0.29850  Biso   1.000  C
  H36      1.0000 0.42500  0.03590  0.30410  Biso   1.000  H
  C50      1.0000 0.25400  0.10760  0.22667  Biso   1.000  C
  C51      1.0000 0.16620  0.11980  0.21802  Biso   1.000  C
  H37      1.0000 0.11960  0.12450  0.23270  Biso   1.000  H
  C52      1.0000 0.14610  0.12550  0.18649  Biso   1.000  C
  H38      1.0000 0.08570  0.13330  0.18000  Biso   1.000  H
  C53      1.0000 0.21630  0.11940  0.16530  Biso   1.000  C
  C54      1.0000 0.30470  0.11320  0.17532  Biso   1.000  C
  H39      1.0000 0.35290  0.11220  0.16100  Biso   1.000  H
  C55      1.0000 0.32540  0.10830  0.20671  Biso   1.000  C
  H40      1.0000 0.38650  0.10560  0.21360  Biso   1.000  H
  C56      1.0000 0.19470  0.12490  0.13071  Biso   1.000  C
  O8       1.0000 0.38310  0.87488  0.54166  Biso   1.000  O
  O9       1.0000 0.40900  0.97009  0.55848  Biso   1.000  O
  O10      1.0000 0.25870  0.12950  0.11242  Biso   1.000  O
  O11      1.0000 0.10900  0.12490  0.12417  Biso   1.000  O
  O12      1.0000 0.55280  0.84350  0.58193  Biso   1.000  O
  O13      1.0000 0.71830  0.83800  0.57993  Biso   1.000  O
  O14      1.0000 0.62650  0.74030  0.58071  Biso   1.000  O
  N3       1.0000 0.34080  0.01431  0.41350  Biso   1.000  N
  N4       1.0000 0.27260  0.09750  0.25960  Biso   1.000  N
  F2       1.0000 0.64400  0.80300  0.62763  Biso   1.000  F
  P3       1.0000 0.36847  0.69677  0.58967  Biso   1.000  P
  Zn3      1.0000 0.58423  0.65416  0.58242  Biso   1.000  Zn
  C57      1.0000 0.60830  0.56710  0.53751  Biso   1.000  C
  C58      1.0000 0.62370  0.54520  0.50523  Biso   1.000  C
  C59      1.0000 0.64740  0.58700  0.48195  Biso   1.000  C
  H41      1.0000 0.65530  0.62830  0.48670  Biso   1.000  H
  C60      1.0000 0.65900  0.56710  0.45176  Biso   1.000  C
  H42      1.0000 0.67420  0.59480  0.43620  Biso   1.000  H
  C61      1.0000 0.64780  0.50660  0.44551  Biso   1.000  C
  C62      1.0000 0.62890  0.46360  0.46790  Biso   1.000  C
  H43      1.0000 0.62520  0.42210  0.46300  Biso   1.000  H
  C63      1.0000 0.61540  0.48340  0.49797  Biso   1.000  C
  H44      1.0000 0.60070  0.45520  0.51330  Biso   1.000  H
  C64      1.0000 0.74570  0.48150  0.40156  Biso   1.000  C
  H45      1.0000 0.79690  0.49080  0.41370  Biso   1.000  H
  C65      1.0000 0.75800  0.46370  0.37176  Biso   1.000  C
  H46      1.0000 0.81770  0.46090  0.36370  Biso   1.000  H
  C66      1.0000 0.68220  0.44970  0.35354  Biso   1.000  C
  C67      1.0000 0.59530  0.45400  0.36613  Biso   1.000  C
  H47      1.0000 0.54310  0.44450  0.35440  Biso   1.000  H
  C68      1.0000 0.58520  0.47270  0.39690  Biso   1.000  C
  H48      1.0000 0.52630  0.47600  0.40560  Biso   1.000  H
  C69      1.0000 0.69620  0.43120  0.32059  Biso   1.000  C
  C70      1.0000 0.77330  0.45540  0.30466  Biso   1.000  C
  H49      1.0000 0.81320  0.48280  0.31440  Biso   1.000  H
  C71      1.0000 0.78890  0.43830  0.27470  Biso   1.000  C
  H50      1.0000 0.84250  0.45160  0.26480  Biso   1.000  H
  C72      1.0000 0.65330  0.37990  0.27431  Biso   1.000  C
  H51      1.0000 0.61120  0.35500  0.26390  Biso   1.000  H
  C73      1.0000 0.63990  0.39350  0.30447  Biso   1.000  C
  H52      1.0000 0.58930  0.37610  0.31450  Biso   1.000  H
  C74      1.0000 0.76500  0.39300  0.31150  Biso   1.000  C
  H53      1.0000 0.80860  0.37920  0.32560  Biso   1.000  H
  C75      1.0000 0.76900  0.37500  0.28200  Biso   1.000  C
  H54      1.0000 0.80410  0.34040  0.27730  Biso   1.000  H
  C76      1.0000 0.64930  0.43170  0.26820  Biso   1.000  C
  H55      1.0000 0.60640  0.44290  0.25320  Biso   1.000  H
  C77      1.0000 0.63070  0.44550  0.29850  Biso   1.000  C
  H56      1.0000 0.57500  0.46410  0.30410  Biso   1.000  H
  C78      1.0000 0.74600  0.39240  0.22667  Biso   1.000  C
  C79      1.0000 0.83380  0.38020  0.21802  Biso   1.000  C
  H57      1.0000 0.88040  0.37550  0.23270  Biso   1.000  H
  C80      1.0000 0.85390  0.37450  0.18649  Biso   1.000  C
  H58      1.0000 0.91430  0.36670  0.18000  Biso   1.000  H
  C81      1.0000 0.78370  0.38060  0.16530  Biso   1.000  C
  C82      1.0000 0.69530  0.38680  0.17532  Biso   1.000  C
  H59      1.0000 0.64710  0.38780  0.16100  Biso   1.000  H
  C83      1.0000 0.67460  0.39170  0.20671  Biso   1.000  C
  H60      1.0000 0.61350  0.39440  0.21360  Biso   1.000  H
  C84      1.0000 0.80530  0.37510  0.13071  Biso   1.000  C
  O15      1.0000 0.61690  0.62512  0.54166  Biso   1.000  O
  O16      1.0000 0.59100  0.52991  0.55848  Biso   1.000  O
  O17      1.0000 0.74130  0.37050  0.11242  Biso   1.000  O
  O18      1.0000 0.89100  0.37510  0.12417  Biso   1.000  O
  O19      1.0000 0.44720  0.65650  0.58193  Biso   1.000  O
  O20      1.0000 0.28170  0.66200  0.57993  Biso   1.000  O
  O21      1.0000 0.37350  0.75970  0.58071  Biso   1.000  O
  N5       1.0000 0.65920  0.48569  0.41350  Biso   1.000  N
  N6       1.0000 0.72740  0.40250  0.25960  Biso   1.000  N
  F3       1.0000 0.35600  0.69700  0.62763  Biso   1.000  F
  P4       1.0000 0.86847  0.19677  0.08967  Biso   1.000  P
  Zn4      1.0000 0.08423  0.15416  0.08242  Biso   1.000  Zn
  C85      1.0000 0.10830  0.06710  0.03751  Biso   1.000  C
  C86      1.0000 0.12370  0.04520  0.00523  Biso   1.000  C
  C87      1.0000 0.14740  0.08700  0.98195  Biso   1.000  C
  H61      1.0000 0.15530  0.12830  0.98670  Biso   1.000  H
  C88      1.0000 0.15900  0.06710  0.95176  Biso   1.000  C
  H62      1.0000 0.17420  0.09480  0.93620  Biso   1.000  H
  C89      1.0000 0.14780  0.00660  0.94551  Biso   1.000  C
  C90      1.0000 0.12890  0.96360  0.96790  Biso   1.000  C
  H63      1.0000 0.12520  0.92210  0.96300  Biso   1.000  H
  C91      1.0000 0.11540  0.98340  0.99797  Biso   1.000  C
  H64      1.0000 0.10070  0.95520  0.01330  Biso   1.000  H
  C92      1.0000 0.24570  0.98150  0.90156  Biso   1.000  C
  H65      1.0000 0.29690  0.99080  0.91370  Biso   1.000  H
  C93      1.0000 0.25800  0.96370  0.87176  Biso   1.000  C
  H66      1.0000 0.31770  0.96090  0.86370  Biso   1.000  H
  C94      1.0000 0.18220  0.94970  0.85354  Biso   1.000  C
  C95      1.0000 0.09530  0.95400  0.86613  Biso   1.000  C
  H67      1.0000 0.04310  0.94450  0.85440  Biso   1.000  H
  C96      1.0000 0.08520  0.97270  0.89690  Biso   1.000  C
  H68      1.0000 0.02630  0.97600  0.90560  Biso   1.000  H
  C97      1.0000 0.19620  0.93120  0.82059  Biso   1.000  C
  C98      1.0000 0.27330  0.95540  0.80466  Biso   1.000  C
  H69      1.0000 0.31320  0.98280  0.81440  Biso   1.000  H
  C99      1.0000 0.28890  0.93830  0.77470  Biso   1.000  C
  H70      1.0000 0.34250  0.95160  0.76480  Biso   1.000  H
  C100     1.0000 0.15330  0.87990  0.77431  Biso   1.000  C
  H71      1.0000 0.11120  0.85500  0.76390  Biso   1.000  H
  C101     1.0000 0.13990  0.89350  0.80447  Biso   1.000  C
  H72      1.0000 0.08930  0.87610  0.81450  Biso   1.000  H
  C102     1.0000 0.26500  0.89300  0.81150  Biso   1.000  C
  H73      1.0000 0.30860  0.87920  0.82560  Biso   1.000  H
  C103     1.0000 0.26900  0.87500  0.78200  Biso   1.000  C
  H74      1.0000 0.30410  0.84040  0.77730  Biso   1.000  H
  C104     1.0000 0.14930  0.93170  0.76820  Biso   1.000  C
  H75      1.0000 0.10640  0.94290  0.75320  Biso   1.000  H
  C105     1.0000 0.13070  0.94550  0.79850  Biso   1.000  C
  H76      1.0000 0.07500  0.96410  0.80410  Biso   1.000  H
  C106     1.0000 0.24600  0.89240  0.72667  Biso   1.000  C
  C107     1.0000 0.33380  0.88020  0.71802  Biso   1.000  C
  H77      1.0000 0.38040  0.87550  0.73270  Biso   1.000  H
  C108     1.0000 0.35390  0.87450  0.68649  Biso   1.000  C
  H78      1.0000 0.41430  0.86670  0.68000  Biso   1.000  H
  C109     1.0000 0.28370  0.88060  0.66530  Biso   1.000  C
  C110     1.0000 0.19530  0.88680  0.67532  Biso   1.000  C
  H79      1.0000 0.14710  0.88780  0.66100  Biso   1.000  H
  C111     1.0000 0.17460  0.89170  0.70671  Biso   1.000  C
  H80      1.0000 0.11350  0.89440  0.71360  Biso   1.000  H
  C112     1.0000 0.30530  0.87510  0.63071  Biso   1.000  C
  O22      1.0000 0.11690  0.12512  0.04166  Biso   1.000  O
  O23      1.0000 0.09100  0.02991  0.05848  Biso   1.000  O
  O24      1.0000 0.24130  0.87050  0.61242  Biso   1.000  O
  O25      1.0000 0.39100  0.87510  0.62417  Biso   1.000  O
  O26      1.0000 0.94720  0.15650  0.08193  Biso   1.000  O
  O27      1.0000 0.78170  0.16200  0.07993  Biso   1.000  O
  O28      1.0000 0.87350  0.25970  0.08071  Biso   1.000  O
  N7       1.0000 0.15920  0.98569  0.91350  Biso   1.000  N
  N8       1.0000 0.22740  0.90250  0.75960  Biso   1.000  N
  F4       1.0000 0.85600  0.19700  0.12763  Biso   1.000  F
  P5       1.0000 0.86847  0.80323  0.41033  Biso   1.000  P
  Zn5      1.0000 0.08423  0.84584  0.41758  Biso   1.000  Zn
  C113     1.0000 0.10830  0.93290  0.46249  Biso   1.000  C
  C114     1.0000 0.12370  0.95480  0.49477  Biso   1.000  C
  C115     1.0000 0.14740  0.91300  0.51805  Biso   1.000  C
  H81      1.0000 0.15530  0.87170  0.51330  Biso   1.000  H
  C116     1.0000 0.15900  0.93290  0.54824  Biso   1.000  C
  H82      1.0000 0.17420  0.90520  0.56380  Biso   1.000  H
  C117     1.0000 0.14780  0.99340  0.55449  Biso   1.000  C
  C118     1.0000 0.12890  0.03640  0.53210  Biso   1.000  C
  H83      1.0000 0.12520  0.07790  0.53700  Biso   1.000  H
  C119     1.0000 0.11540  0.01660  0.50203  Biso   1.000  C
  H84      1.0000 0.10070  0.04480  0.48670  Biso   1.000  H
  C120     1.0000 0.24570  0.01850  0.59844  Biso   1.000  C
  H85      1.0000 0.29690  0.00920  0.58630  Biso   1.000  H
  C121     1.0000 0.25800  0.03630  0.62824  Biso   1.000  C
  H86      1.0000 0.31770  0.03910  0.63630  Biso   1.000  H
  C122     1.0000 0.18220  0.05030  0.64646  Biso   1.000  C
  C123     1.0000 0.09530  0.04600  0.63387  Biso   1.000  C
  H87      1.0000 0.04310  0.05550  0.64560  Biso   1.000  H
  C124     1.0000 0.08520  0.02730  0.60310  Biso   1.000  C
  H88      1.0000 0.02630  0.02400  0.59440  Biso   1.000  H
  C125     1.0000 0.19620  0.06880  0.67941  Biso   1.000  C
  C126     1.0000 0.27330  0.04460  0.69534  Biso   1.000  C
  H89      1.0000 0.31320  0.01720  0.68560  Biso   1.000  H
  C127     1.0000 0.28890  0.06170  0.72530  Biso   1.000  C
  H90      1.0000 0.34250  0.04840  0.73520  Biso   1.000  H
  C128     1.0000 0.15330  0.12010  0.72569  Biso   1.000  C
  H91      1.0000 0.11120  0.14500  0.73610  Biso   1.000  H
  C129     1.0000 0.13990  0.10650  0.69553  Biso   1.000  C
  H92      1.0000 0.08930  0.12390  0.68550  Biso   1.000  H
  C130     1.0000 0.26500  0.10700  0.68850  Biso   1.000  C
  H93      1.0000 0.30860  0.12080  0.67440  Biso   1.000  H
  C131     1.0000 0.26900  0.12500  0.71800  Biso   1.000  C
  H94      1.0000 0.30410  0.15960  0.72270  Biso   1.000  H
  C132     1.0000 0.14930  0.06830  0.73180  Biso   1.000  C
  H95      1.0000 0.10640  0.05710  0.74680  Biso   1.000  H
  C133     1.0000 0.13070  0.05450  0.70150  Biso   1.000  C
  H96      1.0000 0.07500  0.03590  0.69590  Biso   1.000  H
  C134     1.0000 0.24600  0.10760  0.77333  Biso   1.000  C
  C135     1.0000 0.33380  0.11980  0.78198  Biso   1.000  C
  H97      1.0000 0.38040  0.12450  0.76730  Biso   1.000  H
  C136     1.0000 0.35390  0.12550  0.81351  Biso   1.000  C
  H98      1.0000 0.41430  0.13330  0.82000  Biso   1.000  H
  C137     1.0000 0.28370  0.11940  0.83470  Biso   1.000  C
  C138     1.0000 0.19530  0.11320  0.82468  Biso   1.000  C
  H99      1.0000 0.14710  0.11220  0.83900  Biso   1.000  H
  C139     1.0000 0.17460  0.10830  0.79329  Biso   1.000  C
  H100     1.0000 0.11350  0.10560  0.78640  Biso   1.000  H
  C140     1.0000 0.30530  0.12490  0.86929  Biso   1.000  C
  O29      1.0000 0.11690  0.87488  0.45834  Biso   1.000  O
  O30      1.0000 0.09100  0.97009  0.44152  Biso   1.000  O
  O31      1.0000 0.24130  0.12950  0.88758  Biso   1.000  O
  O32      1.0000 0.39100  0.12490  0.87583  Biso   1.000  O
  O33      1.0000 0.94720  0.84350  0.41807  Biso   1.000  O
  O34      1.0000 0.78170  0.83800  0.42007  Biso   1.000  O
  O35      1.0000 0.87350  0.74030  0.41929  Biso   1.000  O
  N9       1.0000 0.15920  0.01431  0.58650  Biso   1.000  N
  N10      1.0000 0.22740  0.09750  0.74040  Biso   1.000  N
  F5       1.0000 0.85600  0.80300  0.37237  Biso   1.000  F
  P6       1.0000 0.36847  0.30323  0.91033  Biso   1.000  P
  Zn6      1.0000 0.58423  0.34584  0.91758  Biso   1.000  Zn
  C141     1.0000 0.60830  0.43290  0.96249  Biso   1.000  C
  C142     1.0000 0.62370  0.45480  0.99477  Biso   1.000  C
  C143     1.0000 0.64740  0.41300  0.01805  Biso   1.000  C
  H101     1.0000 0.65530  0.37170  0.01330  Biso   1.000  H
  C144     1.0000 0.65900  0.43290  0.04824  Biso   1.000  C
  H102     1.0000 0.67420  0.40520  0.06380  Biso   1.000  H
  C145     1.0000 0.64780  0.49340  0.05449  Biso   1.000  C
  C146     1.0000 0.62890  0.53640  0.03210  Biso   1.000  C
  H103     1.0000 0.62520  0.57790  0.03700  Biso   1.000  H
  C147     1.0000 0.61540  0.51660  0.00203  Biso   1.000  C
  H104     1.0000 0.60070  0.54480  0.98670  Biso   1.000  H
  C148     1.0000 0.74570  0.51850  0.09844  Biso   1.000  C
  H105     1.0000 0.79690  0.50920  0.08630  Biso   1.000  H
  C149     1.0000 0.75800  0.53630  0.12824  Biso   1.000  C
  H106     1.0000 0.81770  0.53910  0.13630  Biso   1.000  H
  C150     1.0000 0.68220  0.55030  0.14646  Biso   1.000  C
  C151     1.0000 0.59530  0.54600  0.13387  Biso   1.000  C
  H107     1.0000 0.54310  0.55550  0.14560  Biso   1.000  H
  C152     1.0000 0.58520  0.52730  0.10310  Biso   1.000  C
  H108     1.0000 0.52630  0.52400  0.09440  Biso   1.000  H
  C153     1.0000 0.69620  0.56880  0.17941  Biso   1.000  C
  C154     1.0000 0.77330  0.54460  0.19534  Biso   1.000  C
  H109     1.0000 0.81320  0.51720  0.18560  Biso   1.000  H
  C155     1.0000 0.78890  0.56170  0.22530  Biso   1.000  C
  H110     1.0000 0.84250  0.54840  0.23520  Biso   1.000  H
  C156     1.0000 0.65330  0.62010  0.22569  Biso   1.000  C
  H111     1.0000 0.61120  0.64500  0.23610  Biso   1.000  H
  C157     1.0000 0.63990  0.60650  0.19553  Biso   1.000  C
  H112     1.0000 0.58930  0.62390  0.18550  Biso   1.000  H
  C158     1.0000 0.76500  0.60700  0.18850  Biso   1.000  C
  H113     1.0000 0.80860  0.62080  0.17440  Biso   1.000  H
  C159     1.0000 0.76900  0.62500  0.21800  Biso   1.000  C
  H114     1.0000 0.80410  0.65960  0.22270  Biso   1.000  H
  C160     1.0000 0.64930  0.56830  0.23180  Biso   1.000  C
  H115     1.0000 0.60640  0.55710  0.24680  Biso   1.000  H
  C161     1.0000 0.63070  0.55450  0.20150  Biso   1.000  C
  H116     1.0000 0.57500  0.53590  0.19590  Biso   1.000  H
  C162     1.0000 0.74600  0.60760  0.27333  Biso   1.000  C
  C163     1.0000 0.83380  0.61980  0.28198  Biso   1.000  C
  H117     1.0000 0.88040  0.62450  0.26730  Biso   1.000  H
  C164     1.0000 0.85390  0.62550  0.31351  Biso   1.000  C
  H118     1.0000 0.91430  0.63330  0.32000  Biso   1.000  H
  C165     1.0000 0.78370  0.61940  0.33470  Biso   1.000  C
  C166     1.0000 0.69530  0.61320  0.32468  Biso   1.000  C
  H119     1.0000 0.64710  0.61220  0.33900  Biso   1.000  H
  C167     1.0000 0.67460  0.60830  0.29329  Biso   1.000  C
  H120     1.0000 0.61350  0.60560  0.28640  Biso   1.000  H
  C168     1.0000 0.80530  0.62490  0.36929  Biso   1.000  C
  O36      1.0000 0.61690  0.37488  0.95834  Biso   1.000  O
  O37      1.0000 0.59100  0.47009  0.94152  Biso   1.000  O
  O38      1.0000 0.74130  0.62950  0.38758  Biso   1.000  O
  O39      1.0000 0.89100  0.62490  0.37583  Biso   1.000  O
  O40      1.0000 0.44720  0.34350  0.91807  Biso   1.000  O
  O41      1.0000 0.28170  0.33800  0.92007  Biso   1.000  O
  O42      1.0000 0.37350  0.24030  0.91929  Biso   1.000  O
  N11      1.0000 0.65920  0.51431  0.08650  Biso   1.000  N
  N12      1.0000 0.72740  0.59750  0.24040  Biso   1.000  N
  F6       1.0000 0.35600  0.30300  0.87237  Biso   1.000  F
  P7       1.0000 0.63153  0.19677  0.91033  Biso   1.000  P
  Zn7      1.0000 0.41577  0.15416  0.91758  Biso   1.000  Zn
  C169     1.0000 0.39170  0.06710  0.96249  Biso   1.000  C
  C170     1.0000 0.37630  0.04520  0.99477  Biso   1.000  C
  C171     1.0000 0.35260  0.08700  0.01805  Biso   1.000  C
  H121     1.0000 0.34470  0.12830  0.01330  Biso   1.000  H
  C172     1.0000 0.34100  0.06710  0.04824  Biso   1.000  C
  H122     1.0000 0.32580  0.09480  0.06380  Biso   1.000  H
  C173     1.0000 0.35220  0.00660  0.05449  Biso   1.000  C
  C174     1.0000 0.37110  0.96360  0.03210  Biso   1.000  C
  H123     1.0000 0.37480  0.92210  0.03700  Biso   1.000  H
  C175     1.0000 0.38460  0.98340  0.00203  Biso   1.000  C
  H124     1.0000 0.39930  0.95520  0.98670  Biso   1.000  H
  C176     1.0000 0.25430  0.98150  0.09844  Biso   1.000  C
  H125     1.0000 0.20310  0.99080  0.08630  Biso   1.000  H
  C177     1.0000 0.24200  0.96370  0.12824  Biso   1.000  C
  H126     1.0000 0.18230  0.96090  0.13630  Biso   1.000  H
  C178     1.0000 0.31780  0.94970  0.14646  Biso   1.000  C
  C179     1.0000 0.40470  0.95400  0.13387  Biso   1.000  C
  H127     1.0000 0.45690  0.94450  0.14560  Biso   1.000  H
  C180     1.0000 0.41480  0.97270  0.10310  Biso   1.000  C
  H128     1.0000 0.47370  0.97600  0.09440  Biso   1.000  H
  C181     1.0000 0.30380  0.93120  0.17941  Biso   1.000  C
  C182     1.0000 0.22670  0.95540  0.19534  Biso   1.000  C
  H129     1.0000 0.18680  0.98280  0.18560  Biso   1.000  H
  C183     1.0000 0.21110  0.93830  0.22530  Biso   1.000  C
  H130     1.0000 0.15750  0.95160  0.23520  Biso   1.000  H
  C184     1.0000 0.34670  0.87990  0.22569  Biso   1.000  C
  H131     1.0000 0.38880  0.85500  0.23610  Biso   1.000  H
  C185     1.0000 0.36010  0.89350  0.19553  Biso   1.000  C
  H132     1.0000 0.41070  0.87610  0.18550  Biso   1.000  H
  C186     1.0000 0.23500  0.89300  0.18850  Biso   1.000  C
  H133     1.0000 0.19140  0.87920  0.17440  Biso   1.000  H
  C187     1.0000 0.23100  0.87500  0.21800  Biso   1.000  C
  H134     1.0000 0.19590  0.84040  0.22270  Biso   1.000  H
  C188     1.0000 0.35070  0.93170  0.23180  Biso   1.000  C
  H135     1.0000 0.39360  0.94290  0.24680  Biso   1.000  H
  C189     1.0000 0.36930  0.94550  0.20150  Biso   1.000  C
  H136     1.0000 0.42500  0.96410  0.19590  Biso   1.000  H
  C190     1.0000 0.25400  0.89240  0.27333  Biso   1.000  C
  C191     1.0000 0.16620  0.88020  0.28198  Biso   1.000  C
  H137     1.0000 0.11960  0.87550  0.26730  Biso   1.000  H
  C192     1.0000 0.14610  0.87450  0.31351  Biso   1.000  C
  H138     1.0000 0.08570  0.86670  0.32000  Biso   1.000  H
  C193     1.0000 0.21630  0.88060  0.33470  Biso   1.000  C
  C194     1.0000 0.30470  0.88680  0.32468  Biso   1.000  C
  H139     1.0000 0.35290  0.88780  0.33900  Biso   1.000  H
  C195     1.0000 0.32540  0.89170  0.29329  Biso   1.000  C
  H140     1.0000 0.38650  0.89440  0.28640  Biso   1.000  H
  C196     1.0000 0.19470  0.87510  0.36929  Biso   1.000  C
  O43      1.0000 0.38310  0.12512  0.95834  Biso   1.000  O
  O44      1.0000 0.40900  0.02991  0.94152  Biso   1.000  O
  O45      1.0000 0.25870  0.87050  0.38758  Biso   1.000  O
  O46      1.0000 0.10900  0.87510  0.37583  Biso   1.000  O
  O47      1.0000 0.55280  0.15650  0.91807  Biso   1.000  O
  O48      1.0000 0.71830  0.16200  0.92007  Biso   1.000  O
  O49      1.0000 0.62650  0.25970  0.91929  Biso   1.000  O
  N13      1.0000 0.34080  0.98569  0.08650  Biso   1.000  N
  N14      1.0000 0.27260  0.90250  0.24040  Biso   1.000  N
  F7       1.0000 0.64400  0.19700  0.87237  Biso   1.000  F
  P8       1.0000 0.13153  0.69677  0.41033  Biso   1.000  P
  Zn8      1.0000 0.91577  0.65416  0.41758  Biso   1.000  Zn
  C197     1.0000 0.89170  0.56710  0.46249  Biso   1.000  C
  C198     1.0000 0.87630  0.54520  0.49477  Biso   1.000  C
  C199     1.0000 0.85260  0.58700  0.51805  Biso   1.000  C
  H141     1.0000 0.84470  0.62830  0.51330  Biso   1.000  H
  C200     1.0000 0.84100  0.56710  0.54824  Biso   1.000  C
  H142     1.0000 0.82580  0.59480  0.56380  Biso   1.000  H
  C201     1.0000 0.85220  0.50660  0.55449  Biso   1.000  C
  C202     1.0000 0.87110  0.46360  0.53210  Biso   1.000  C
  H143     1.0000 0.87480  0.42210  0.53700  Biso   1.000  H
  C203     1.0000 0.88460  0.48340  0.50203  Biso   1.000  C
  H144     1.0000 0.89930  0.45520  0.48670  Biso   1.000  H
  C204     1.0000 0.75430  0.48150  0.59844  Biso   1.000  C
  H145     1.0000 0.70310  0.49080  0.58630  Biso   1.000  H
  C205     1.0000 0.74200  0.46370  0.62824  Biso   1.000  C
  H146     1.0000 0.68230  0.46090  0.63630  Biso   1.000  H
  C206     1.0000 0.81780  0.44970  0.64646  Biso   1.000  C
  C207     1.0000 0.90470  0.45400  0.63387  Biso   1.000  C
  H147     1.0000 0.95690  0.44450  0.64560  Biso   1.000  H
  C208     1.0000 0.91480  0.47270  0.60310  Biso   1.000  C
  H148     1.0000 0.97370  0.47600  0.59440  Biso   1.000  H
  C209     1.0000 0.80380  0.43120  0.67941  Biso   1.000  C
  C210     1.0000 0.72670  0.45540  0.69534  Biso   1.000  C
  H149     1.0000 0.68680  0.48280  0.68560  Biso   1.000  H
  C211     1.0000 0.71110  0.43830  0.72530  Biso   1.000  C
  H150     1.0000 0.65750  0.45160  0.73520  Biso   1.000  H
  C212     1.0000 0.84670  0.37990  0.72569  Biso   1.000  C
  H151     1.0000 0.88880  0.35500  0.73610  Biso   1.000  H
  C213     1.0000 0.86010  0.39350  0.69553  Biso   1.000  C
  H152     1.0000 0.91070  0.37610  0.68550  Biso   1.000  H
  C214     1.0000 0.73500  0.39300  0.68850  Biso   1.000  C
  H153     1.0000 0.69140  0.37920  0.67440  Biso   1.000  H
  C215     1.0000 0.73100  0.37500  0.71800  Biso   1.000  C
  H154     1.0000 0.69590  0.34040  0.72270  Biso   1.000  H
  C216     1.0000 0.85070  0.43170  0.73180  Biso   1.000  C
  H155     1.0000 0.89360  0.44290  0.74680  Biso   1.000  H
  C217     1.0000 0.86930  0.44550  0.70150  Biso   1.000  C
  H156     1.0000 0.92500  0.46410  0.69590  Biso   1.000  H
  C218     1.0000 0.75400  0.39240  0.77333  Biso   1.000  C
  C219     1.0000 0.66620  0.38020  0.78198  Biso   1.000  C
  H157     1.0000 0.61960  0.37550  0.76730  Biso   1.000  H
  C220     1.0000 0.64610  0.37450  0.81351  Biso   1.000  C
  H158     1.0000 0.58570  0.36670  0.82000  Biso   1.000  H
  C221     1.0000 0.71630  0.38060  0.83470  Biso   1.000  C
  C222     1.0000 0.80470  0.38680  0.82468  Biso   1.000  C
  H159     1.0000 0.85290  0.38780  0.83900  Biso   1.000  H
  C223     1.0000 0.82540  0.39170  0.79329  Biso   1.000  C
  H160     1.0000 0.88650  0.39440  0.78640  Biso   1.000  H
  C224     1.0000 0.69470  0.37510  0.86929  Biso   1.000  C
  O50      1.0000 0.88310  0.62512  0.45834  Biso   1.000  O
  O51      1.0000 0.90900  0.52991  0.44152  Biso   1.000  O
  O52      1.0000 0.75870  0.37050  0.88758  Biso   1.000  O
  O53      1.0000 0.60900  0.37510  0.87583  Biso   1.000  O
  O54      1.0000 0.05280  0.65650  0.41807  Biso   1.000  O
  O55      1.0000 0.21830  0.66200  0.42007  Biso   1.000  O
  O56      1.0000 0.12650  0.75970  0.41929  Biso   1.000  O
  N15      1.0000 0.84080  0.48569  0.58650  Biso   1.000  N
  N16      1.0000 0.77260  0.40250  0.74040  Biso   1.000  N
  F8       1.0000 0.14400  0.69700  0.37237  Biso   1.000  F
  P9       1.0000 0.86847  0.69677  0.91033  Biso   1.000  P
  Zn9      1.0000 0.08423  0.65416  0.91758  Biso   1.000  Zn
  C225     1.0000 0.10830  0.56710  0.96249  Biso   1.000  C
  C226     1.0000 0.12370  0.54520  0.99477  Biso   1.000  C
  C227     1.0000 0.14740  0.58700  0.01805  Biso   1.000  C
  H161     1.0000 0.15530  0.62830  0.01330  Biso   1.000  H
  C228     1.0000 0.15900  0.56710  0.04824  Biso   1.000  C
  H162     1.0000 0.17420  0.59480  0.06380  Biso   1.000  H
  C229     1.0000 0.14780  0.50660  0.05449  Biso   1.000  C
  C230     1.0000 0.12890  0.46360  0.03210  Biso   1.000  C
  H163     1.0000 0.12520  0.42210  0.03700  Biso   1.000  H
  C231     1.0000 0.11540  0.48340  0.00203  Biso   1.000  C
  H164     1.0000 0.10070  0.45520  0.98670  Biso   1.000  H
  C232     1.0000 0.24570  0.48150  0.09844  Biso   1.000  C
  H165     1.0000 0.29690  0.49080  0.08630  Biso   1.000  H
  C233     1.0000 0.25800  0.46370  0.12824  Biso   1.000  C
  H166     1.0000 0.31770  0.46090  0.13630  Biso   1.000  H
  C234     1.0000 0.18220  0.44970  0.14646  Biso   1.000  C
  C235     1.0000 0.09530  0.45400  0.13387  Biso   1.000  C
  H167     1.0000 0.04310  0.44450  0.14560  Biso   1.000  H
  C236     1.0000 0.08520  0.47270  0.10310  Biso   1.000  C
  H168     1.0000 0.02630  0.47600  0.09440  Biso   1.000  H
  C237     1.0000 0.19620  0.43120  0.17941  Biso   1.000  C
  C238     1.0000 0.27330  0.45540  0.19534  Biso   1.000  C
  H169     1.0000 0.31320  0.48280  0.18560  Biso   1.000  H
  C239     1.0000 0.28890  0.43830  0.22530  Biso   1.000  C
  H170     1.0000 0.34250  0.45160  0.23520  Biso   1.000  H
  C240     1.0000 0.15330  0.37990  0.22569  Biso   1.000  C
  H171     1.0000 0.11120  0.35500  0.23610  Biso   1.000  H
  C241     1.0000 0.13990  0.39350  0.19553  Biso   1.000  C
  H172     1.0000 0.08930  0.37610  0.18550  Biso   1.000  H
  C242     1.0000 0.26500  0.39300  0.18850  Biso   1.000  C
  H173     1.0000 0.30860  0.37920  0.17440  Biso   1.000  H
  C243     1.0000 0.26900  0.37500  0.21800  Biso   1.000  C
  H174     1.0000 0.30410  0.34040  0.22270  Biso   1.000  H
  C244     1.0000 0.14930  0.43170  0.23180  Biso   1.000  C
  H175     1.0000 0.10640  0.44290  0.24680  Biso   1.000  H
  C245     1.0000 0.13070  0.44550  0.20150  Biso   1.000  C
  H176     1.0000 0.07500  0.46410  0.19590  Biso   1.000  H
  C246     1.0000 0.24600  0.39240  0.27333  Biso   1.000  C
  C247     1.0000 0.33380  0.38020  0.28198  Biso   1.000  C
  H177     1.0000 0.38040  0.37550  0.26730  Biso   1.000  H
  C248     1.0000 0.35390  0.37450  0.31351  Biso   1.000  C
  H178     1.0000 0.41430  0.36670  0.32000  Biso   1.000  H
  C249     1.0000 0.28370  0.38060  0.33470  Biso   1.000  C
  C250     1.0000 0.19530  0.38680  0.32468  Biso   1.000  C
  H179     1.0000 0.14710  0.38780  0.33900  Biso   1.000  H
  C251     1.0000 0.17460  0.39170  0.29329  Biso   1.000  C
  H180     1.0000 0.11350  0.39440  0.28640  Biso   1.000  H
  C252     1.0000 0.30530  0.37510  0.36929  Biso   1.000  C
  O57      1.0000 0.11690  0.62512  0.95834  Biso   1.000  O
  O58      1.0000 0.09100  0.52991  0.94152  Biso   1.000  O
  O59      1.0000 0.24130  0.37050  0.38758  Biso   1.000  O
  O60      1.0000 0.39100  0.37510  0.37583  Biso   1.000  O
  O61      1.0000 0.94720  0.65650  0.91807  Biso   1.000  O
  O62      1.0000 0.78170  0.66200  0.92007  Biso   1.000  O
  O63      1.0000 0.87350  0.75970  0.91929  Biso   1.000  O
  N17      1.0000 0.15920  0.48569  0.08650  Biso   1.000  N
  N18      1.0000 0.22740  0.40250  0.24040  Biso   1.000  N
  F9       1.0000 0.85600  0.69700  0.87237  Biso   1.000  F
  P10      1.0000 0.36847  0.19677  0.41033  Biso   1.000  P
  Zn10     1.0000 0.58423  0.15416  0.41758  Biso   1.000  Zn
  C253     1.0000 0.60830  0.06710  0.46249  Biso   1.000  C
  C254     1.0000 0.62370  0.04520  0.49477  Biso   1.000  C
  C255     1.0000 0.64740  0.08700  0.51805  Biso   1.000  C
  H181     1.0000 0.65530  0.12830  0.51330  Biso   1.000  H
  C256     1.0000 0.65900  0.06710  0.54824  Biso   1.000  C
  H182     1.0000 0.67420  0.09480  0.56380  Biso   1.000  H
  C257     1.0000 0.64780  0.00660  0.55449  Biso   1.000  C
  C258     1.0000 0.62890  0.96360  0.53210  Biso   1.000  C
  H183     1.0000 0.62520  0.92210  0.53700  Biso   1.000  H
  C259     1.0000 0.61540  0.98340  0.50203  Biso   1.000  C
  H184     1.0000 0.60070  0.95520  0.48670  Biso   1.000  H
  C260     1.0000 0.74570  0.98150  0.59844  Biso   1.000  C
  H185     1.0000 0.79690  0.99080  0.58630  Biso   1.000  H
  C261     1.0000 0.75800  0.96370  0.62824  Biso   1.000  C
  H186     1.0000 0.81770  0.96090  0.63630  Biso   1.000  H
  C262     1.0000 0.68220  0.94970  0.64646  Biso   1.000  C
  C263     1.0000 0.59530  0.95400  0.63387  Biso   1.000  C
  H187     1.0000 0.54310  0.94450  0.64560  Biso   1.000  H
  C264     1.0000 0.58520  0.97270  0.60310  Biso   1.000  C
  H188     1.0000 0.52630  0.97600  0.59440  Biso   1.000  H
  C265     1.0000 0.69620  0.93120  0.67941  Biso   1.000  C
  C266     1.0000 0.77330  0.95540  0.69534  Biso   1.000  C
  H189     1.0000 0.81320  0.98280  0.68560  Biso   1.000  H
  C267     1.0000 0.78890  0.93830  0.72530  Biso   1.000  C
  H190     1.0000 0.84250  0.95160  0.73520  Biso   1.000  H
  C268     1.0000 0.65330  0.87990  0.72569  Biso   1.000  C
  H191     1.0000 0.61120  0.85500  0.73610  Biso   1.000  H
  C269     1.0000 0.63990  0.89350  0.69553  Biso   1.000  C
  H192     1.0000 0.58930  0.87610  0.68550  Biso   1.000  H
  C270     1.0000 0.76500  0.89300  0.68850  Biso   1.000  C
  H193     1.0000 0.80860  0.87920  0.67440  Biso   1.000  H
  C271     1.0000 0.76900  0.87500  0.71800  Biso   1.000  C
  H194     1.0000 0.80410  0.84040  0.72270  Biso   1.000  H
  C272     1.0000 0.64930  0.93170  0.73180  Biso   1.000  C
  H195     1.0000 0.60640  0.94290  0.74680  Biso   1.000  H
  C273     1.0000 0.63070  0.94550  0.70150  Biso   1.000  C
  H196     1.0000 0.57500  0.96410  0.69590  Biso   1.000  H
  C274     1.0000 0.74600  0.89240  0.77333  Biso   1.000  C
  C275     1.0000 0.83380  0.88020  0.78198  Biso   1.000  C
  H197     1.0000 0.88040  0.87550  0.76730  Biso   1.000  H
  C276     1.0000 0.85390  0.87450  0.81351  Biso   1.000  C
  H198     1.0000 0.91430  0.86670  0.82000  Biso   1.000  H
  C277     1.0000 0.78370  0.88060  0.83470  Biso   1.000  C
  C278     1.0000 0.69530  0.88680  0.82468  Biso   1.000  C
  H199     1.0000 0.64710  0.88780  0.83900  Biso   1.000  H
  C279     1.0000 0.67460  0.89170  0.79329  Biso   1.000  C
  H200     1.0000 0.61350  0.89440  0.78640  Biso   1.000  H
  C280     1.0000 0.80530  0.87510  0.86929  Biso   1.000  C
  O64      1.0000 0.61690  0.12512  0.45834  Biso   1.000  O
  O65      1.0000 0.59100  0.02991  0.44152  Biso   1.000  O
  O66      1.0000 0.74130  0.87050  0.88758  Biso   1.000  O
  O67      1.0000 0.89100  0.87510  0.87583  Biso   1.000  O
  O68      1.0000 0.44720  0.15650  0.41807  Biso   1.000  O
  O69      1.0000 0.28170  0.16200  0.42007  Biso   1.000  O
  O70      1.0000 0.37350  0.25970  0.41929  Biso   1.000  O
  N19      1.0000 0.65920  0.98569  0.58650  Biso   1.000  N
  N20      1.0000 0.72740  0.90250  0.74040  Biso   1.000  N
  F10      1.0000 0.35600  0.19700  0.37237  Biso   1.000  F
  P11      1.0000 0.63153  0.30323  0.41033  Biso   1.000  P
  Zn11     1.0000 0.41577  0.34584  0.41758  Biso   1.000  Zn
  C281     1.0000 0.39170  0.43290  0.46249  Biso   1.000  C
  C282     1.0000 0.37630  0.45480  0.49477  Biso   1.000  C
  C283     1.0000 0.35260  0.41300  0.51805  Biso   1.000  C
  H201     1.0000 0.34470  0.37170  0.51330  Biso   1.000  H
  C284     1.0000 0.34100  0.43290  0.54824  Biso   1.000  C
  H202     1.0000 0.32580  0.40520  0.56380  Biso   1.000  H
  C285     1.0000 0.35220  0.49340  0.55449  Biso   1.000  C
  C286     1.0000 0.37110  0.53640  0.53210  Biso   1.000  C
  H203     1.0000 0.37480  0.57790  0.53700  Biso   1.000  H
  C287     1.0000 0.38460  0.51660  0.50203  Biso   1.000  C
  H204     1.0000 0.39930  0.54480  0.48670  Biso   1.000  H
  C288     1.0000 0.25430  0.51850  0.59844  Biso   1.000  C
  H205     1.0000 0.20310  0.50920  0.58630  Biso   1.000  H
  C289     1.0000 0.24200  0.53630  0.62824  Biso   1.000  C
  H206     1.0000 0.18230  0.53910  0.63630  Biso   1.000  H
  C290     1.0000 0.31780  0.55030  0.64646  Biso   1.000  C
  C291     1.0000 0.40470  0.54600  0.63387  Biso   1.000  C
  H207     1.0000 0.45690  0.55550  0.64560  Biso   1.000  H
  C292     1.0000 0.41480  0.52730  0.60310  Biso   1.000  C
  H208     1.0000 0.47370  0.52400  0.59440  Biso   1.000  H
  C293     1.0000 0.30380  0.56880  0.67941  Biso   1.000  C
  C294     1.0000 0.22670  0.54460  0.69534  Biso   1.000  C
  H209     1.0000 0.18680  0.51720  0.68560  Biso   1.000  H
  C295     1.0000 0.21110  0.56170  0.72530  Biso   1.000  C
  H210     1.0000 0.15750  0.54840  0.73520  Biso   1.000  H
  C296     1.0000 0.34670  0.62010  0.72569  Biso   1.000  C
  H211     1.0000 0.38880  0.64500  0.73610  Biso   1.000  H
  C297     1.0000 0.36010  0.60650  0.69553  Biso   1.000  C
  H212     1.0000 0.41070  0.62390  0.68550  Biso   1.000  H
  C298     1.0000 0.23500  0.60700  0.68850  Biso   1.000  C
  H213     1.0000 0.19140  0.62080  0.67440  Biso   1.000  H
  C299     1.0000 0.23100  0.62500  0.71800  Biso   1.000  C
  H214     1.0000 0.19590  0.65960  0.72270  Biso   1.000  H
  C300     1.0000 0.35070  0.56830  0.73180  Biso   1.000  C
  H215     1.0000 0.39360  0.55710  0.74680  Biso   1.000  H
  C301     1.0000 0.36930  0.55450  0.70150  Biso   1.000  C
  H216     1.0000 0.42500  0.53590  0.69590  Biso   1.000  H
  C302     1.0000 0.25400  0.60760  0.77333  Biso   1.000  C
  C303     1.0000 0.16620  0.61980  0.78198  Biso   1.000  C
  H217     1.0000 0.11960  0.62450  0.76730  Biso   1.000  H
  C304     1.0000 0.14610  0.62550  0.81351  Biso   1.000  C
  H218     1.0000 0.08570  0.63330  0.82000  Biso   1.000  H
  C305     1.0000 0.21630  0.61940  0.83470  Biso   1.000  C
  C306     1.0000 0.30470  0.61320  0.82468  Biso   1.000  C
  H219     1.0000 0.35290  0.61220  0.83900  Biso   1.000  H
  C307     1.0000 0.32540  0.60830  0.79329  Biso   1.000  C
  H220     1.0000 0.38650  0.60560  0.78640  Biso   1.000  H
  C308     1.0000 0.19470  0.62490  0.86929  Biso   1.000  C
  O71      1.0000 0.38310  0.37488  0.45834  Biso   1.000  O
  O72      1.0000 0.40900  0.47009  0.44152  Biso   1.000  O
  O73      1.0000 0.25870  0.62950  0.88758  Biso   1.000  O
  O74      1.0000 0.10900  0.62490  0.87583  Biso   1.000  O
  O75      1.0000 0.55280  0.34350  0.41807  Biso   1.000  O
  O76      1.0000 0.71830  0.33800  0.42007  Biso   1.000  O
  O77      1.0000 0.62650  0.24030  0.41929  Biso   1.000  O
  N21      1.0000 0.34080  0.51431  0.58650  Biso   1.000  N
  N22      1.0000 0.27260  0.59750  0.74040  Biso   1.000  N
  F11      1.0000 0.64400  0.30300  0.37237  Biso   1.000  F
  P12      1.0000 0.13153  0.80323  0.91033  Biso   1.000  P
  Zn12     1.0000 0.91577  0.84584  0.91758  Biso   1.000  Zn
  C309     1.0000 0.89170  0.93290  0.96249  Biso   1.000  C
  C310     1.0000 0.87630  0.95480  0.99477  Biso   1.000  C
  C311     1.0000 0.85260  0.91300  0.01805  Biso   1.000  C
  H221     1.0000 0.84470  0.87170  0.01330  Biso   1.000  H
  C312     1.0000 0.84100  0.93290  0.04824  Biso   1.000  C
  H222     1.0000 0.82580  0.90520  0.06380  Biso   1.000  H
  C313     1.0000 0.85220  0.99340  0.05449  Biso   1.000  C
  C314     1.0000 0.87110  0.03640  0.03210  Biso   1.000  C
  H223     1.0000 0.87480  0.07790  0.03700  Biso   1.000  H
  C315     1.0000 0.88460  0.01660  0.00203  Biso   1.000  C
  H224     1.0000 0.89930  0.04480  0.98670  Biso   1.000  H
  C316     1.0000 0.75430  0.01850  0.09844  Biso   1.000  C
  H225     1.0000 0.70310  0.00920  0.08630  Biso   1.000  H
  C317     1.0000 0.74200  0.03630  0.12824  Biso   1.000  C
  H226     1.0000 0.68230  0.03910  0.13630  Biso   1.000  H
  C318     1.0000 0.81780  0.05030  0.14646  Biso   1.000  C
  C319     1.0000 0.90470  0.04600  0.13387  Biso   1.000  C
  H227     1.0000 0.95690  0.05550  0.14560  Biso   1.000  H
  C320     1.0000 0.91480  0.02730  0.10310  Biso   1.000  C
  H228     1.0000 0.97370  0.02400  0.09440  Biso   1.000  H
  C321     1.0000 0.80380  0.06880  0.17941  Biso   1.000  C
  C322     1.0000 0.72670  0.04460  0.19534  Biso   1.000  C
  H229     1.0000 0.68680  0.01720  0.18560  Biso   1.000  H
  C323     1.0000 0.71110  0.06170  0.22530  Biso   1.000  C
  H230     1.0000 0.65750  0.04840  0.23520  Biso   1.000  H
  C324     1.0000 0.84670  0.12010  0.22569  Biso   1.000  C
  H231     1.0000 0.88880  0.14500  0.23610  Biso   1.000  H
  C325     1.0000 0.86010  0.10650  0.19553  Biso   1.000  C
  H232     1.0000 0.91070  0.12390  0.18550  Biso   1.000  H
  C326     1.0000 0.73500  0.10700  0.18850  Biso   1.000  C
  H233     1.0000 0.69140  0.12080  0.17440  Biso   1.000  H
  C327     1.0000 0.73100  0.12500  0.21800  Biso   1.000  C
  H234     1.0000 0.69590  0.15960  0.22270  Biso   1.000  H
  C328     1.0000 0.85070  0.06830  0.23180  Biso   1.000  C
  H235     1.0000 0.89360  0.05710  0.24680  Biso   1.000  H
  C329     1.0000 0.86930  0.05450  0.20150  Biso   1.000  C
  H236     1.0000 0.92500  0.03590  0.19590  Biso   1.000  H
  C330     1.0000 0.75400  0.10760  0.27333  Biso   1.000  C
  C331     1.0000 0.66620  0.11980  0.28198  Biso   1.000  C
  H237     1.0000 0.61960  0.12450  0.26730  Biso   1.000  H
  C332     1.0000 0.64610  0.12550  0.31351  Biso   1.000  C
  H238     1.0000 0.58570  0.13330  0.32000  Biso   1.000  H
  C333     1.0000 0.71630  0.11940  0.33470  Biso   1.000  C
  C334     1.0000 0.80470  0.11320  0.32468  Biso   1.000  C
  H239     1.0000 0.85290  0.11220  0.33900  Biso   1.000  H
  C335     1.0000 0.82540  0.10830  0.29329  Biso   1.000  C
  H240     1.0000 0.88650  0.10560  0.28640  Biso   1.000  H
  C336     1.0000 0.69470  0.12490  0.36929  Biso   1.000  C
  O78      1.0000 0.88310  0.87488  0.95834  Biso   1.000  O
  O79      1.0000 0.90900  0.97009  0.94152  Biso   1.000  O
  O80      1.0000 0.75870  0.12950  0.38758  Biso   1.000  O
  O81      1.0000 0.60900  0.12490  0.37583  Biso   1.000  O
  O82      1.0000 0.05280  0.84350  0.91807  Biso   1.000  O
  O83      1.0000 0.21830  0.83800  0.92007  Biso   1.000  O
  O84      1.0000 0.12650  0.74030  0.91929  Biso   1.000  O
  N23      1.0000 0.84080  0.01431  0.08650  Biso   1.000  N
  N24      1.0000 0.77260  0.09750  0.24040  Biso   1.000  N
  F12      1.0000 0.14400  0.80300  0.87237  Biso   1.000  F
  P13      1.0000 0.13153  0.19677  0.58967  Biso   1.000  P
  Zn13     1.0000 0.91577  0.15416  0.58242  Biso   1.000  Zn
  C337     1.0000 0.89170  0.06710  0.53751  Biso   1.000  C
  C338     1.0000 0.87630  0.04520  0.50523  Biso   1.000  C
  C339     1.0000 0.85260  0.08700  0.48195  Biso   1.000  C
  H241     1.0000 0.84470  0.12830  0.48670  Biso   1.000  H
  C340     1.0000 0.84100  0.06710  0.45176  Biso   1.000  C
  H242     1.0000 0.82580  0.09480  0.43620  Biso   1.000  H
  C341     1.0000 0.85220  0.00660  0.44551  Biso   1.000  C
  C342     1.0000 0.87110  0.96360  0.46790  Biso   1.000  C
  H243     1.0000 0.87480  0.92210  0.46300  Biso   1.000  H
  C343     1.0000 0.88460  0.98340  0.49797  Biso   1.000  C
  H244     1.0000 0.89930  0.95520  0.51330  Biso   1.000  H
  C344     1.0000 0.75430  0.98150  0.40156  Biso   1.000  C
  H245     1.0000 0.70310  0.99080  0.41370  Biso   1.000  H
  C345     1.0000 0.74200  0.96370  0.37176  Biso   1.000  C
  H246     1.0000 0.68230  0.96090  0.36370  Biso   1.000  H
  C346     1.0000 0.81780  0.94970  0.35354  Biso   1.000  C
  C347     1.0000 0.90470  0.95400  0.36613  Biso   1.000  C
  H247     1.0000 0.95690  0.94450  0.35440  Biso   1.000  H
  C348     1.0000 0.91480  0.97270  0.39690  Biso   1.000  C
  H248     1.0000 0.97370  0.97600  0.40560  Biso   1.000  H
  C349     1.0000 0.80380  0.93120  0.32059  Biso   1.000  C
  C350     1.0000 0.72670  0.95540  0.30466  Biso   1.000  C
  H249     1.0000 0.68680  0.98280  0.31440  Biso   1.000  H
  C351     1.0000 0.71110  0.93830  0.27470  Biso   1.000  C
  H250     1.0000 0.65750  0.95160  0.26480  Biso   1.000  H
  C352     1.0000 0.84670  0.87990  0.27431  Biso   1.000  C
  H251     1.0000 0.88880  0.85500  0.26390  Biso   1.000  H
  C353     1.0000 0.86010  0.89350  0.30447  Biso   1.000  C
  H252     1.0000 0.91070  0.87610  0.31450  Biso   1.000  H
  C354     1.0000 0.73500  0.89300  0.31150  Biso   1.000  C
  H253     1.0000 0.69140  0.87920  0.32560  Biso   1.000  H
  C355     1.0000 0.73100  0.87500  0.28200  Biso   1.000  C
  H254     1.0000 0.69590  0.84040  0.27730  Biso   1.000  H
  C356     1.0000 0.85070  0.93170  0.26820  Biso   1.000  C
  H255     1.0000 0.89360  0.94290  0.25320  Biso   1.000  H
  C357     1.0000 0.86930  0.94550  0.29850  Biso   1.000  C
  H256     1.0000 0.92500  0.96410  0.30410  Biso   1.000  H
  C358     1.0000 0.75400  0.89240  0.22667  Biso   1.000  C
  C359     1.0000 0.66620  0.88020  0.21802  Biso   1.000  C
  H257     1.0000 0.61960  0.87550  0.23270  Biso   1.000  H
  C360     1.0000 0.64610  0.87450  0.18649  Biso   1.000  C
  H258     1.0000 0.58570  0.86670  0.18000  Biso   1.000  H
  C361     1.0000 0.71630  0.88060  0.16530  Biso   1.000  C
  C362     1.0000 0.80470  0.88680  0.17532  Biso   1.000  C
  H259     1.0000 0.85290  0.88780  0.16100  Biso   1.000  H
  C363     1.0000 0.82540  0.89170  0.20671  Biso   1.000  C
  H260     1.0000 0.88650  0.89440  0.21360  Biso   1.000  H
  C364     1.0000 0.69470  0.87510  0.13071  Biso   1.000  C
  O85      1.0000 0.88310  0.12512  0.54166  Biso   1.000  O
  O86      1.0000 0.90900  0.02991  0.55848  Biso   1.000  O
  O87      1.0000 0.75870  0.87050  0.11242  Biso   1.000  O
  O88      1.0000 0.60900  0.87510  0.12417  Biso   1.000  O
  O89      1.0000 0.05280  0.15650  0.58193  Biso   1.000  O
  O90      1.0000 0.21830  0.16200  0.57993  Biso   1.000  O
  O91      1.0000 0.12650  0.25970  0.58071  Biso   1.000  O
  N25      1.0000 0.84080  0.98569  0.41350  Biso   1.000  N
  N26      1.0000 0.77260  0.90250  0.25960  Biso   1.000  N
  F13      1.0000 0.14400  0.19700  0.62763  Biso   1.000  F
  P14      1.0000 0.63153  0.69677  0.08967  Biso   1.000  P
  Zn14     1.0000 0.41577  0.65416  0.08242  Biso   1.000  Zn
  C365     1.0000 0.39170  0.56710  0.03751  Biso   1.000  C
  C366     1.0000 0.37630  0.54520  0.00523  Biso   1.000  C
  C367     1.0000 0.35260  0.58700  0.98195  Biso   1.000  C
  H261     1.0000 0.34470  0.62830  0.98670  Biso   1.000  H
  C368     1.0000 0.34100  0.56710  0.95176  Biso   1.000  C
  H262     1.0000 0.32580  0.59480  0.93620  Biso   1.000  H
  C369     1.0000 0.35220  0.50660  0.94551  Biso   1.000  C
  C370     1.0000 0.37110  0.46360  0.96790  Biso   1.000  C
  H263     1.0000 0.37480  0.42210  0.96300  Biso   1.000  H
  C371     1.0000 0.38460  0.48340  0.99797  Biso   1.000  C
  H264     1.0000 0.39930  0.45520  0.01330  Biso   1.000  H
  C372     1.0000 0.25430  0.48150  0.90156  Biso   1.000  C
  H265     1.0000 0.20310  0.49080  0.91370  Biso   1.000  H
  C373     1.0000 0.24200  0.46370  0.87176  Biso   1.000  C
  H266     1.0000 0.18230  0.46090  0.86370  Biso   1.000  H
  C374     1.0000 0.31780  0.44970  0.85354  Biso   1.000  C
  C375     1.0000 0.40470  0.45400  0.86613  Biso   1.000  C
  H267     1.0000 0.45690  0.44450  0.85440  Biso   1.000  H
  C376     1.0000 0.41480  0.47270  0.89690  Biso   1.000  C
  H268     1.0000 0.47370  0.47600  0.90560  Biso   1.000  H
  C377     1.0000 0.30380  0.43120  0.82059  Biso   1.000  C
  C378     1.0000 0.22670  0.45540  0.80466  Biso   1.000  C
  H269     1.0000 0.18680  0.48280  0.81440  Biso   1.000  H
  C379     1.0000 0.21110  0.43830  0.77470  Biso   1.000  C
  H270     1.0000 0.15750  0.45160  0.76480  Biso   1.000  H
  C380     1.0000 0.34670  0.37990  0.77431  Biso   1.000  C
  H271     1.0000 0.38880  0.35500  0.76390  Biso   1.000  H
  C381     1.0000 0.36010  0.39350  0.80447  Biso   1.000  C
  H272     1.0000 0.41070  0.37610  0.81450  Biso   1.000  H
  C382     1.0000 0.23500  0.39300  0.81150  Biso   1.000  C
  H273     1.0000 0.19140  0.37920  0.82560  Biso   1.000  H
  C383     1.0000 0.23100  0.37500  0.78200  Biso   1.000  C
  H274     1.0000 0.19590  0.34040  0.77730  Biso   1.000  H
  C384     1.0000 0.35070  0.43170  0.76820  Biso   1.000  C
  H275     1.0000 0.39360  0.44290  0.75320  Biso   1.000  H
  C385     1.0000 0.36930  0.44550  0.79850  Biso   1.000  C
  H276     1.0000 0.42500  0.46410  0.80410  Biso   1.000  H
  C386     1.0000 0.25400  0.39240  0.72667  Biso   1.000  C
  C387     1.0000 0.16620  0.38020  0.71802  Biso   1.000  C
  H277     1.0000 0.11960  0.37550  0.73270  Biso   1.000  H
  C388     1.0000 0.14610  0.37450  0.68649  Biso   1.000  C
  H278     1.0000 0.08570  0.36670  0.68000  Biso   1.000  H
  C389     1.0000 0.21630  0.38060  0.66530  Biso   1.000  C
  C390     1.0000 0.30470  0.38680  0.67532  Biso   1.000  C
  H279     1.0000 0.35290  0.38780  0.66100  Biso   1.000  H
  C391     1.0000 0.32540  0.39170  0.70671  Biso   1.000  C
  H280     1.0000 0.38650  0.39440  0.71360  Biso   1.000  H
  C392     1.0000 0.19470  0.37510  0.63071  Biso   1.000  C
  O92      1.0000 0.38310  0.62512  0.04166  Biso   1.000  O
  O93      1.0000 0.40900  0.52991  0.05848  Biso   1.000  O
  O94      1.0000 0.25870  0.37050  0.61242  Biso   1.000  O
  O95      1.0000 0.10900  0.37510  0.62417  Biso   1.000  O
  O96      1.0000 0.55280  0.65650  0.08193  Biso   1.000  O
  O97      1.0000 0.71830  0.66200  0.07993  Biso   1.000  O
  O98      1.0000 0.62650  0.75970  0.08071  Biso   1.000  O
  N27      1.0000 0.34080  0.48569  0.91350  Biso   1.000  N
  N28      1.0000 0.27260  0.40250  0.75960  Biso   1.000  N
  F14      1.0000 0.64400  0.69700  0.12763  Biso   1.000  F
  P15      1.0000 0.36847  0.80323  0.08967  Biso   1.000  P
  Zn15     1.0000 0.58423  0.84584  0.08242  Biso   1.000  Zn
  C393     1.0000 0.60830  0.93290  0.03751  Biso   1.000  C
  C394     1.0000 0.62370  0.95480  0.00523  Biso   1.000  C
  C395     1.0000 0.64740  0.91300  0.98195  Biso   1.000  C
  H281     1.0000 0.65530  0.87170  0.98670  Biso   1.000  H
  C396     1.0000 0.65900  0.93290  0.95176  Biso   1.000  C
  H282     1.0000 0.67420  0.90520  0.93620  Biso   1.000  H
  C397     1.0000 0.64780  0.99340  0.94551  Biso   1.000  C
  C398     1.0000 0.62890  0.03640  0.96790  Biso   1.000  C
  H283     1.0000 0.62520  0.07790  0.96300  Biso   1.000  H
  C399     1.0000 0.61540  0.01660  0.99797  Biso   1.000  C
  H284     1.0000 0.60070  0.04480  0.01330  Biso   1.000  H
  C400     1.0000 0.74570  0.01850  0.90156  Biso   1.000  C
  H285     1.0000 0.79690  0.00920  0.91370  Biso   1.000  H
  C401     1.0000 0.75800  0.03630  0.87176  Biso   1.000  C
  H286     1.0000 0.81770  0.03910  0.86370  Biso   1.000  H
  C402     1.0000 0.68220  0.05030  0.85354  Biso   1.000  C
  C403     1.0000 0.59530  0.04600  0.86613  Biso   1.000  C
  H287     1.0000 0.54310  0.05550  0.85440  Biso   1.000  H
  C404     1.0000 0.58520  0.02730  0.89690  Biso   1.000  C
  H288     1.0000 0.52630  0.02400  0.90560  Biso   1.000  H
  C405     1.0000 0.69620  0.06880  0.82059  Biso   1.000  C
  C406     1.0000 0.77330  0.04460  0.80466  Biso   1.000  C
  H289     1.0000 0.81320  0.01720  0.81440  Biso   1.000  H
  C407     1.0000 0.78890  0.06170  0.77470  Biso   1.000  C
  H290     1.0000 0.84250  0.04840  0.76480  Biso   1.000  H
  C408     1.0000 0.65330  0.12010  0.77431  Biso   1.000  C
  H291     1.0000 0.61120  0.14500  0.76390  Biso   1.000  H
  C409     1.0000 0.63990  0.10650  0.80447  Biso   1.000  C
  H292     1.0000 0.58930  0.12390  0.81450  Biso   1.000  H
  C410     1.0000 0.76500  0.10700  0.81150  Biso   1.000  C
  H293     1.0000 0.80860  0.12080  0.82560  Biso   1.000  H
  C411     1.0000 0.76900  0.12500  0.78200  Biso   1.000  C
  H294     1.0000 0.80410  0.15960  0.77730  Biso   1.000  H
  C412     1.0000 0.64930  0.06830  0.76820  Biso   1.000  C
  H295     1.0000 0.60640  0.05710  0.75320  Biso   1.000  H
  C413     1.0000 0.63070  0.05450  0.79850  Biso   1.000  C
  H296     1.0000 0.57500  0.03590  0.80410  Biso   1.000  H
  C414     1.0000 0.74600  0.10760  0.72667  Biso   1.000  C
  C415     1.0000 0.83380  0.11980  0.71802  Biso   1.000  C
  H297     1.0000 0.88040  0.12450  0.73270  Biso   1.000  H
  C416     1.0000 0.85390  0.12550  0.68649  Biso   1.000  C
  H298     1.0000 0.91430  0.13330  0.68000  Biso   1.000  H
  C417     1.0000 0.78370  0.11940  0.66530  Biso   1.000  C
  C418     1.0000 0.69530  0.11320  0.67532  Biso   1.000  C
  H299     1.0000 0.64710  0.11220  0.66100  Biso   1.000  H
  C419     1.0000 0.67460  0.10830  0.70671  Biso   1.000  C
  H300     1.0000 0.61350  0.10560  0.71360  Biso   1.000  H
  C420     1.0000 0.80530  0.12490  0.63071  Biso   1.000  C
  O99      1.0000 0.61690  0.87488  0.04166  Biso   1.000  O
  O100     1.0000 0.59100  0.97009  0.05848  Biso   1.000  O
  O101     1.0000 0.74130  0.12950  0.61242  Biso   1.000  O
  O102     1.0000 0.89100  0.12490  0.62417  Biso   1.000  O
  O103     1.0000 0.44720  0.84350  0.08193  Biso   1.000  O
  O104     1.0000 0.28170  0.83800  0.07993  Biso   1.000  O
  O105     1.0000 0.37350  0.74030  0.08071  Biso   1.000  O
  N29      1.0000 0.65920  0.01431  0.91350  Biso   1.000  N
  N30      1.0000 0.72740  0.09750  0.75960  Biso   1.000  N
  F15      1.0000 0.35600  0.80300  0.12763  Biso   1.000  F
  P16      1.0000 0.86847  0.30323  0.58967  Biso   1.000  P
  Zn16     1.0000 0.08423  0.34584  0.58242  Biso   1.000  Zn
  C421     1.0000 0.10830  0.43290  0.53751  Biso   1.000  C
  C422     1.0000 0.12370  0.45480  0.50523  Biso   1.000  C
  C423     1.0000 0.14740  0.41300  0.48195  Biso   1.000  C
  H301     1.0000 0.15530  0.37170  0.48670  Biso   1.000  H
  C424     1.0000 0.15900  0.43290  0.45176  Biso   1.000  C
  H302     1.0000 0.17420  0.40520  0.43620  Biso   1.000  H
  C425     1.0000 0.14780  0.49340  0.44551  Biso   1.000  C
  C426     1.0000 0.12890  0.53640  0.46790  Biso   1.000  C
  H303     1.0000 0.12520  0.57790  0.46300  Biso   1.000  H
  C427     1.0000 0.11540  0.51660  0.49797  Biso   1.000  C
  H304     1.0000 0.10070  0.54480  0.51330  Biso   1.000  H
  C428     1.0000 0.24570  0.51850  0.40156  Biso   1.000  C
  H305     1.0000 0.29690  0.50920  0.41370  Biso   1.000  H
  C429     1.0000 0.25800  0.53630  0.37176  Biso   1.000  C
  H306     1.0000 0.31770  0.53910  0.36370  Biso   1.000  H
  C430     1.0000 0.18220  0.55030  0.35354  Biso   1.000  C
  C431     1.0000 0.09530  0.54600  0.36613  Biso   1.000  C
  H307     1.0000 0.04310  0.55550  0.35440  Biso   1.000  H
  C432     1.0000 0.08520  0.52730  0.39690  Biso   1.000  C
  H308     1.0000 0.02630  0.52400  0.40560  Biso   1.000  H
  C433     1.0000 0.19620  0.56880  0.32059  Biso   1.000  C
  C434     1.0000 0.27330  0.54460  0.30466  Biso   1.000  C
  H309     1.0000 0.31320  0.51720  0.31440  Biso   1.000  H
  C435     1.0000 0.28890  0.56170  0.27470  Biso   1.000  C
  H310     1.0000 0.34250  0.54840  0.26480  Biso   1.000  H
  C436     1.0000 0.15330  0.62010  0.27431  Biso   1.000  C
  H311     1.0000 0.11120  0.64500  0.26390  Biso   1.000  H
  C437     1.0000 0.13990  0.60650  0.30447  Biso   1.000  C
  H312     1.0000 0.08930  0.62390  0.31450  Biso   1.000  H
  C438     1.0000 0.26500  0.60700  0.31150  Biso   1.000  C
  H313     1.0000 0.30860  0.62080  0.32560  Biso   1.000  H
  C439     1.0000 0.26900  0.62500  0.28200  Biso   1.000  C
  H314     1.0000 0.30410  0.65960  0.27730  Biso   1.000  H
  C440     1.0000 0.14930  0.56830  0.26820  Biso   1.000  C
  H315     1.0000 0.10640  0.55710  0.25320  Biso   1.000  H
  C441     1.0000 0.13070  0.55450  0.29850  Biso   1.000  C
  H316     1.0000 0.07500  0.53590  0.30410  Biso   1.000  H
  C442     1.0000 0.24600  0.60760  0.22667  Biso   1.000  C
  C443     1.0000 0.33380  0.61980  0.21802  Biso   1.000  C
  H317     1.0000 0.38040  0.62450  0.23270  Biso   1.000  H
  C444     1.0000 0.35390  0.62550  0.18649  Biso   1.000  C
  H318     1.0000 0.41430  0.63330  0.18000  Biso   1.000  H
  C445     1.0000 0.28370  0.61940  0.16530  Biso   1.000  C
  C446     1.0000 0.19530  0.61320  0.17532  Biso   1.000  C
  H319     1.0000 0.14710  0.61220  0.16100  Biso   1.000  H
  C447     1.0000 0.17460  0.60830  0.20671  Biso   1.000  C
  H320     1.0000 0.11350  0.60560  0.21360  Biso   1.000  H
  C448     1.0000 0.30530  0.62490  0.13071  Biso   1.000  C
  O106     1.0000 0.11690  0.37488  0.54166  Biso   1.000  O
  O107     1.0000 0.09100  0.47009  0.55848  Biso   1.000  O
  O108     1.0000 0.24130  0.62950  0.11242  Biso   1.000  O
  O109     1.0000 0.39100  0.62490  0.12417  Biso   1.000  O
  O110     1.0000 0.94720  0.34350  0.58193  Biso   1.000  O
  O111     1.0000 0.78170  0.33800  0.57993  Biso   1.000  O
  O112     1.0000 0.87350  0.24030  0.58071  Biso   1.000  O
  N31      1.0000 0.15920  0.51431  0.41350  Biso   1.000  N
  N32      1.0000 0.22740  0.59750  0.25960  Biso   1.000  N
  F16      1.0000 0.85600  0.30300  0.62763  Biso   1.000  F
