data_image0
_cell_length_a       25.183
_cell_length_b       24.173
_cell_length_c       19.292
_cell_angle_alpha    90
_cell_angle_beta     118.283
_cell_angle_gamma    90

_symmetry_space_group_name_H-M    "P 1"
_symmetry_int_tables_number       1

loop_
  _symmetry_equiv_pos_as_xyz
  'x, y, z'

loop_
  _atom_site_label
  _atom_site_occupancy
  _atom_site_fract_x
  _atom_site_fract_y
  _atom_site_fract_z
  _atom_site_thermal_displace_type
  _atom_site_B_iso_or_equiv
  _atom_site_type_symbol
  Zn1      1.0000 0.05440  0.99893  0.57986  Biso   1.000  Zn
  Fe1      1.0000 0.23757  0.28361  0.27476  Biso   1.000  Fe
  C1       1.0000 0.13280  0.20110  0.38900  Biso   1.000  C
  C2       1.0000 0.07450  0.18090  0.34330  Biso   1.000  C
  H1       1.0000 0.05320  0.19050  0.28910  Biso   1.000  H
  C3       1.0000 0.04680  0.14730  0.37460  Biso   1.000  C
  H2       1.0000 0.00690  0.13450  0.34190  Biso   1.000  H
  C4       1.0000 0.07670  0.13200  0.45340  Biso   1.000  C
  C5       1.0000 0.13350  0.15390  0.50200  Biso   1.000  C
  H3       1.0000 0.15340  0.14580  0.55670  Biso   1.000  H
  C6       1.0000 0.16080  0.18780  0.46960  Biso   1.000  C
  H4       1.0000 0.19970  0.20250  0.50320  Biso   1.000  H
  B1       1.0000 0.16880  0.23190  0.35150  Biso   1.000  B
  O1       1.0000 0.12980  0.23140  0.26340  Biso   1.000  O
  N1       1.0000 0.16120  0.24860  0.22420  Biso   1.000  N
  C7       1.0000 0.13870  0.23310  0.15160  Biso   1.000  C
  C8       1.0000 0.17570  0.25150  0.11810  Biso   1.000  C
  N2       1.0000 0.22500  0.27380  0.17060  Biso   1.000  N
  O2       1.0000 0.26450  0.29437  0.14460  Biso   1.000  O
  B2       1.0000 0.30690  0.33580  0.19950  Biso   1.000  B
  N3       1.0000 0.26220  0.22460  0.34920  Biso   1.000  N
  O3       1.0000 0.22427  0.20023  0.37370  Biso   1.000  O
  C9       1.0000 0.31950  0.21280  0.38940  Biso   1.000  C
  C10      1.0000 0.35490  0.24300  0.36130  Biso   1.000  C
  N4       1.0000 0.32170  0.27890  0.30830  Biso   1.000  N
  O4       1.0000 0.34998  0.30810  0.27300  Biso   1.000  O
  O5       1.0000 0.18422  0.28927  0.37990  Biso   1.000  O
  N5       1.0000 0.21070  0.31780  0.34210  Biso   1.000  N
  C11      1.0000 0.21230  0.37160  0.34840  Biso   1.000  C
  C12      1.0000 0.23880  0.39670  0.30380  Biso   1.000  C
  N6       1.0000 0.24640  0.36030  0.25950  Biso   1.000  N
  O6       1.0000 0.27430  0.37974  0.21660  Biso   1.000  O
  C13      1.0000 0.34250  0.36290  0.15840  Biso   1.000  C
  C14      1.0000 0.31240  0.38610  0.08400  Biso   1.000  C
  H5       1.0000 0.26960  0.38390  0.05600  Biso   1.000  H
  C15      1.0000 0.25220  0.48260  0.37970  Biso   1.000  C
  H6       1.0000 0.25270  0.52330  0.37490  Biso   1.000  H
  H7       1.0000 0.28870  0.47180  0.42860  Biso   1.000  H
  C16      1.0000 0.25520  0.45690  0.31090  Biso   1.000  C
  H8       1.0000 0.29660  0.46090  0.31770  Biso   1.000  H
  H9       1.0000 0.22720  0.47640  0.26200  Biso   1.000  H
  C17      1.0000 0.19730  0.46610  0.38670  Biso   1.000  C
  H10      1.0000 0.16090  0.47840  0.33870  Biso   1.000  H
  H11      1.0000 0.19800  0.48590  0.43200  Biso   1.000  H
  C18      1.0000 0.19230  0.40450  0.39740  Biso   1.000  C
  H12      1.0000 0.21760  0.39470  0.45350  Biso   1.000  H
  H13      1.0000 0.15000  0.39510  0.38240  Biso   1.000  H
  C19      1.0000 0.34260  0.41230  0.04910  Biso   1.000  C
  H14      1.0000 0.32030  0.42730  0.99770  Biso   1.000  H
  C20      1.0000 0.40440  0.41690  0.08760  Biso   1.000  C
  C21      1.0000 0.43630  0.39010  0.15990  Biso   1.000  C
  H15      1.0000 0.47910  0.38970  0.18550  Biso   1.000  H
  C22      1.0000 0.40560  0.36410  0.19460  Biso   1.000  C
  H16      1.0000 0.42810  0.34670  0.24430  Biso   1.000  H
  C23      1.0000 0.43860  0.44800  0.05380  Biso   1.000  C
  C24      1.0000 0.44280  0.18680  0.45220  Biso   1.000  C
  H17      1.0000 0.43870  0.15280  0.42150  Biso   1.000  H
  H18      1.0000 0.48640  0.19210  0.48810  Biso   1.000  H
  C25      1.0000 0.42150  0.23480  0.39530  Biso   1.000  C
  H19      1.0000 0.44270  0.26890  0.42300  Biso   1.000  H
  H20      1.0000 0.43150  0.22770  0.35230  Biso   1.000  H
  C26      1.0000 0.41430  0.17740  0.49880  Biso   1.000  C
  H21      1.0000 0.42650  0.20740  0.53830  Biso   1.000  H
  H22      1.0000 0.43040  0.14240  0.52800  Biso   1.000  H
  C27      1.0000 0.34640  0.17380  0.45780  Biso   1.000  C
  H23      1.0000 0.33370  0.13550  0.43910  Biso   1.000  H
  H24      1.0000 0.33140  0.18310  0.49550  Biso   1.000  H
  C28      1.0000 0.09170  0.22660  0.98680  Biso   1.000  C
  H25      1.0000 0.06560  0.25910  0.97910  Biso   1.000  H
  H26      1.0000 0.08340  0.21310  0.93410  Biso   1.000  H
  C29      1.0000 0.15800  0.24450  0.03250  Biso   1.000  C
  H27      1.0000 0.18400  0.21620  0.02650  Biso   1.000  H
  H28      1.0000 0.16380  0.27980  0.01100  Biso   1.000  H
  C30      1.0000 0.07620  0.18190  0.02830  Biso   1.000  C
  H29      1.0000 0.10300  0.14980  0.03710  Biso   1.000  H
  H30      1.0000 0.03420  0.16960  0.99410  Biso   1.000  H
  C31      1.0000 0.08220  0.20060  0.10640  Biso   1.000  C
  H31      1.0000 0.04700  0.22370  0.09730  Biso   1.000  H
  H32      1.0000 0.08260  0.16790  0.13750  Biso   1.000  H
  O7       1.0000 0.99820  0.07052  0.43570  Biso   1.000  O
  O8       1.0000 0.08135  0.07060  0.55230  Biso   1.000  O
  C32      1.0000 0.04980  0.08860  0.48340  Biso   1.000  C
  O9       1.0000 0.49350  0.45827  0.09920  Biso   1.000  O
  O10      1.0000 0.41020  0.46089  0.98240  Biso   1.000  O
  Zn2      1.0000 0.44560  0.49893  0.92014  Biso   1.000  Zn
  Fe2      1.0000 0.26243  0.78361  0.22524  Biso   1.000  Fe
  C33      1.0000 0.36720  0.70110  0.11100  Biso   1.000  C
  C34      1.0000 0.42550  0.68090  0.15670  Biso   1.000  C
  H33      1.0000 0.44680  0.69050  0.21090  Biso   1.000  H
  C35      1.0000 0.45320  0.64730  0.12540  Biso   1.000  C
  H34      1.0000 0.49310  0.63450  0.15810  Biso   1.000  H
  C36      1.0000 0.42330  0.63200  0.04660  Biso   1.000  C
  C37      1.0000 0.36650  0.65390  0.99800  Biso   1.000  C
  H35      1.0000 0.34660  0.64580  0.94330  Biso   1.000  H
  C38      1.0000 0.33920  0.68780  0.03040  Biso   1.000  C
  H36      1.0000 0.30030  0.70250  0.99680  Biso   1.000  H
  B3       1.0000 0.33120  0.73190  0.14850  Biso   1.000  B
  O11      1.0000 0.37020  0.73140  0.23660  Biso   1.000  O
  N7       1.0000 0.33880  0.74860  0.27580  Biso   1.000  N
  C39      1.0000 0.36130  0.73310  0.34840  Biso   1.000  C
  C40      1.0000 0.32430  0.75150  0.38190  Biso   1.000  C
  N8       1.0000 0.27500  0.77380  0.32940  Biso   1.000  N
  O12      1.0000 0.23550  0.79437  0.35540  Biso   1.000  O
  B4       1.0000 0.19310  0.83580  0.30050  Biso   1.000  B
  N9       1.0000 0.23780  0.72460  0.15080  Biso   1.000  N
  O13      1.0000 0.27573  0.70023  0.12630  Biso   1.000  O
  C41      1.0000 0.18050  0.71280  0.11060  Biso   1.000  C
  C42      1.0000 0.14510  0.74300  0.13870  Biso   1.000  C
  N10      1.0000 0.17830  0.77890  0.19170  Biso   1.000  N
  O14      1.0000 0.15002  0.80810  0.22700  Biso   1.000  O
  O15      1.0000 0.31578  0.78927  0.12010  Biso   1.000  O
  N11      1.0000 0.28930  0.81780  0.15790  Biso   1.000  N
  C43      1.0000 0.28770  0.87160  0.15160  Biso   1.000  C
  C44      1.0000 0.26120  0.89670  0.19620  Biso   1.000  C
  N12      1.0000 0.25360  0.86030  0.24050  Biso   1.000  N
  O16      1.0000 0.22570  0.87974  0.28340  Biso   1.000  O
  C45      1.0000 0.15750  0.86290  0.34160  Biso   1.000  C
  C46      1.0000 0.18760  0.88610  0.41600  Biso   1.000  C
  H37      1.0000 0.23040  0.88390  0.44400  Biso   1.000  H
  C47      1.0000 0.24780  0.98260  0.12030  Biso   1.000  C
  H38      1.0000 0.24730  0.02330  0.12510  Biso   1.000  H
  H39      1.0000 0.21130  0.97180  0.07140  Biso   1.000  H
  C48      1.0000 0.24480  0.95690  0.18910  Biso   1.000  C
  H40      1.0000 0.20340  0.96090  0.18230  Biso   1.000  H
  H41      1.0000 0.27280  0.97640  0.23800  Biso   1.000  H
  C49      1.0000 0.30270  0.96610  0.11330  Biso   1.000  C
  H42      1.0000 0.33910  0.97840  0.16130  Biso   1.000  H
  H43      1.0000 0.30200  0.98590  0.06800  Biso   1.000  H
  C50      1.0000 0.30770  0.90450  0.10260  Biso   1.000  C
  H44      1.0000 0.28240  0.89470  0.04650  Biso   1.000  H
  H45      1.0000 0.35000  0.89510  0.11760  Biso   1.000  H
  C51      1.0000 0.15740  0.91230  0.45090  Biso   1.000  C
  H46      1.0000 0.17970  0.92730  0.50230  Biso   1.000  H
  C52      1.0000 0.09560  0.91690  0.41240  Biso   1.000  C
  C53      1.0000 0.06370  0.89010  0.34010  Biso   1.000  C
  H47      1.0000 0.02090  0.88970  0.31450  Biso   1.000  H
  C54      1.0000 0.09440  0.86410  0.30540  Biso   1.000  C
  H48      1.0000 0.07190  0.84670  0.25570  Biso   1.000  H
  C55      1.0000 0.06140  0.94800  0.44620  Biso   1.000  C
  C56      1.0000 0.05720  0.68680  0.04780  Biso   1.000  C
  H49      1.0000 0.06130  0.65280  0.07850  Biso   1.000  H
  H50      1.0000 0.01360  0.69210  0.01190  Biso   1.000  H
  C57      1.0000 0.07850  0.73480  0.10470  Biso   1.000  C
  H51      1.0000 0.05730  0.76890  0.07700  Biso   1.000  H
  H52      1.0000 0.06850  0.72770  0.14770  Biso   1.000  H
  C58      1.0000 0.08570  0.67740  0.00120  Biso   1.000  C
  H53      1.0000 0.07350  0.70740  0.96170  Biso   1.000  H
  H54      1.0000 0.06960  0.64240  0.97200  Biso   1.000  H
  C59      1.0000 0.15360  0.67380  0.04220  Biso   1.000  C
  H55      1.0000 0.16630  0.63550  0.06090  Biso   1.000  H
  H56      1.0000 0.16860  0.68310  0.00450  Biso   1.000  H
  C60      1.0000 0.40830  0.72660  0.51320  Biso   1.000  C
  H57      1.0000 0.43440  0.75910  0.52090  Biso   1.000  H
  H58      1.0000 0.41660  0.71310  0.56590  Biso   1.000  H
  C61      1.0000 0.34200  0.74450  0.46750  Biso   1.000  C
  H59      1.0000 0.31600  0.71620  0.47350  Biso   1.000  H
  H60      1.0000 0.33620  0.77980  0.48900  Biso   1.000  H
  C62      1.0000 0.42380  0.68190  0.47170  Biso   1.000  C
  H61      1.0000 0.39700  0.64980  0.46290  Biso   1.000  H
  H62      1.0000 0.46580  0.66960  0.50590  Biso   1.000  H
  C63      1.0000 0.41780  0.70060  0.39360  Biso   1.000  C
  H63      1.0000 0.45300  0.72370  0.40270  Biso   1.000  H
  H64      1.0000 0.41740  0.66790  0.36250  Biso   1.000  H
  O17      1.0000 0.50180  0.57052  0.06430  Biso   1.000  O
  O18      1.0000 0.41865  0.57060  0.94770  Biso   1.000  O
  C64      1.0000 0.45020  0.58860  0.01660  Biso   1.000  C
  O19      1.0000 0.00650  0.95827  0.40080  Biso   1.000  O
  O20      1.0000 0.08980  0.96089  0.51760  Biso   1.000  O
  Zn3      1.0000 0.94560  0.00107  0.42014  Biso   1.000  Zn
  Fe3      1.0000 0.76243  0.71639  0.72524  Biso   1.000  Fe
  C65      1.0000 0.86720  0.79890  0.61100  Biso   1.000  C
  C66      1.0000 0.92550  0.81910  0.65670  Biso   1.000  C
  H65      1.0000 0.94680  0.80950  0.71090  Biso   1.000  H
  C67      1.0000 0.95320  0.85270  0.62540  Biso   1.000  C
  H66      1.0000 0.99310  0.86550  0.65810  Biso   1.000  H
  C68      1.0000 0.92330  0.86800  0.54660  Biso   1.000  C
  C69      1.0000 0.86650  0.84610  0.49800  Biso   1.000  C
  H67      1.0000 0.84660  0.85420  0.44330  Biso   1.000  H
  C70      1.0000 0.83920  0.81220  0.53040  Biso   1.000  C
  H68      1.0000 0.80030  0.79750  0.49680  Biso   1.000  H
  B5       1.0000 0.83120  0.76810  0.64850  Biso   1.000  B
  O21      1.0000 0.87020  0.76860  0.73660  Biso   1.000  O
  N13      1.0000 0.83880  0.75140  0.77580  Biso   1.000  N
  C71      1.0000 0.86130  0.76690  0.84840  Biso   1.000  C
  C72      1.0000 0.82430  0.74850  0.88190  Biso   1.000  C
  N14      1.0000 0.77500  0.72620  0.82940  Biso   1.000  N
  O22      1.0000 0.73550  0.70563  0.85540  Biso   1.000  O
  B6       1.0000 0.69310  0.66420  0.80050  Biso   1.000  B
  N15      1.0000 0.73780  0.77540  0.65080  Biso   1.000  N
  O23      1.0000 0.77573  0.79977  0.62630  Biso   1.000  O
  C73      1.0000 0.68050  0.78720  0.61060  Biso   1.000  C
  C74      1.0000 0.64510  0.75700  0.63870  Biso   1.000  C
  N16      1.0000 0.67830  0.72110  0.69170  Biso   1.000  N
  O24      1.0000 0.65002  0.69190  0.72700  Biso   1.000  O
  O25      1.0000 0.81578  0.71073  0.62010  Biso   1.000  O
  N17      1.0000 0.78930  0.68220  0.65790  Biso   1.000  N
  C75      1.0000 0.78770  0.62840  0.65160  Biso   1.000  C
  C76      1.0000 0.76120  0.60330  0.69620  Biso   1.000  C
  N18      1.0000 0.75360  0.63970  0.74050  Biso   1.000  N
  O26      1.0000 0.72570  0.62026  0.78340  Biso   1.000  O
  C77      1.0000 0.65750  0.63710  0.84160  Biso   1.000  C
  C78      1.0000 0.68760  0.61390  0.91600  Biso   1.000  C
  H69      1.0000 0.73040  0.61610  0.94400  Biso   1.000  H
  C79      1.0000 0.74780  0.51740  0.62030  Biso   1.000  C
  H70      1.0000 0.74730  0.47670  0.62510  Biso   1.000  H
  H71      1.0000 0.71130  0.52820  0.57140  Biso   1.000  H
  C80      1.0000 0.74480  0.54310  0.68910  Biso   1.000  C
  H72      1.0000 0.70340  0.53910  0.68230  Biso   1.000  H
  H73      1.0000 0.77280  0.52360  0.73800  Biso   1.000  H
  C81      1.0000 0.80270  0.53390  0.61330  Biso   1.000  C
  H74      1.0000 0.83910  0.52160  0.66130  Biso   1.000  H
  H75      1.0000 0.80200  0.51410  0.56800  Biso   1.000  H
  C82      1.0000 0.80770  0.59550  0.60260  Biso   1.000  C
  H76      1.0000 0.78240  0.60530  0.54650  Biso   1.000  H
  H77      1.0000 0.85000  0.60490  0.61760  Biso   1.000  H
  C83      1.0000 0.65740  0.58770  0.95090  Biso   1.000  C
  H78      1.0000 0.67970  0.57270  0.00230  Biso   1.000  H
  C84      1.0000 0.59560  0.58310  0.91240  Biso   1.000  C
  C85      1.0000 0.56370  0.60990  0.84010  Biso   1.000  C
  H79      1.0000 0.52090  0.61030  0.81450  Biso   1.000  H
  C86      1.0000 0.59440  0.63590  0.80540  Biso   1.000  C
  H80      1.0000 0.57190  0.65330  0.75570  Biso   1.000  H
  C87      1.0000 0.56140  0.55200  0.94620  Biso   1.000  C
  C88      1.0000 0.55720  0.81320  0.54780  Biso   1.000  C
  H81      1.0000 0.56130  0.84720  0.57850  Biso   1.000  H
  H82      1.0000 0.51360  0.80790  0.51190  Biso   1.000  H
  C89      1.0000 0.57850  0.76520  0.60470  Biso   1.000  C
  H83      1.0000 0.55730  0.73110  0.57700  Biso   1.000  H
  H84      1.0000 0.56850  0.77230  0.64770  Biso   1.000  H
  C90      1.0000 0.58570  0.82260  0.50120  Biso   1.000  C
  H85      1.0000 0.57350  0.79260  0.46170  Biso   1.000  H
  H86      1.0000 0.56960  0.85760  0.47200  Biso   1.000  H
  C91      1.0000 0.65360  0.82620  0.54220  Biso   1.000  C
  H87      1.0000 0.66630  0.86450  0.56090  Biso   1.000  H
  H88      1.0000 0.66860  0.81690  0.50450  Biso   1.000  H
  C92      1.0000 0.90830  0.77340  0.01320  Biso   1.000  C
  H89      1.0000 0.93440  0.74090  0.02090  Biso   1.000  H
  H90      1.0000 0.91660  0.78690  0.06590  Biso   1.000  H
  C93      1.0000 0.84200  0.75550  0.96750  Biso   1.000  C
  H91      1.0000 0.81600  0.78380  0.97350  Biso   1.000  H
  H92      1.0000 0.83620  0.72020  0.98900  Biso   1.000  H
  C94      1.0000 0.92380  0.81810  0.97170  Biso   1.000  C
  H93      1.0000 0.89700  0.85020  0.96290  Biso   1.000  H
  H94      1.0000 0.96580  0.83040  0.00590  Biso   1.000  H
  C95      1.0000 0.91780  0.79940  0.89360  Biso   1.000  C
  H95      1.0000 0.95300  0.77630  0.90270  Biso   1.000  H
  H96      1.0000 0.91740  0.83210  0.86250  Biso   1.000  H
  O27      1.0000 0.00180  0.92948  0.56430  Biso   1.000  O
  O28      1.0000 0.91865  0.92940  0.44770  Biso   1.000  O
  C96      1.0000 0.95020  0.91140  0.51660  Biso   1.000  C
  O29      1.0000 0.50650  0.54173  0.90080  Biso   1.000  O
  O30      1.0000 0.58980  0.53911  0.01760  Biso   1.000  O
  Zn4      1.0000 0.55440  0.50107  0.07986  Biso   1.000  Zn
  Fe4      1.0000 0.73757  0.21639  0.77476  Biso   1.000  Fe
  C97      1.0000 0.63280  0.29890  0.88900  Biso   1.000  C
  C98      1.0000 0.57450  0.31910  0.84330  Biso   1.000  C
  H97      1.0000 0.55320  0.30950  0.78910  Biso   1.000  H
  C99      1.0000 0.54680  0.35270  0.87460  Biso   1.000  C
  H98      1.0000 0.50690  0.36550  0.84190  Biso   1.000  H
  C100     1.0000 0.57670  0.36800  0.95340  Biso   1.000  C
  C101     1.0000 0.63350  0.34610  0.00200  Biso   1.000  C
  H99      1.0000 0.65340  0.35420  0.05670  Biso   1.000  H
  C102     1.0000 0.66080  0.31220  0.96960  Biso   1.000  C
  H100     1.0000 0.69970  0.29750  0.00320  Biso   1.000  H
  B7       1.0000 0.66880  0.26810  0.85150  Biso   1.000  B
  O31      1.0000 0.62980  0.26860  0.76340  Biso   1.000  O
  N19      1.0000 0.66120  0.25140  0.72420  Biso   1.000  N
  C103     1.0000 0.63870  0.26690  0.65160  Biso   1.000  C
  C104     1.0000 0.67570  0.24850  0.61810  Biso   1.000  C
  N20      1.0000 0.72500  0.22620  0.67060  Biso   1.000  N
  O32      1.0000 0.76450  0.20563  0.64460  Biso   1.000  O
  B8       1.0000 0.80690  0.16420  0.69950  Biso   1.000  B
  N21      1.0000 0.76220  0.27540  0.84920  Biso   1.000  N
  O33      1.0000 0.72427  0.29977  0.87370  Biso   1.000  O
  C105     1.0000 0.81950  0.28720  0.88940  Biso   1.000  C
  C106     1.0000 0.85490  0.25700  0.86130  Biso   1.000  C
  N22      1.0000 0.82170  0.22110  0.80830  Biso   1.000  N
  O34      1.0000 0.84998  0.19190  0.77300  Biso   1.000  O
  O35      1.0000 0.68422  0.21073  0.87990  Biso   1.000  O
  N23      1.0000 0.71070  0.18220  0.84210  Biso   1.000  N
  C107     1.0000 0.71230  0.12840  0.84840  Biso   1.000  C
  C108     1.0000 0.73880  0.10330  0.80380  Biso   1.000  C
  N24      1.0000 0.74640  0.13970  0.75950  Biso   1.000  N
  O36      1.0000 0.77430  0.12026  0.71660  Biso   1.000  O
  C109     1.0000 0.84250  0.13710  0.65840  Biso   1.000  C
  C110     1.0000 0.81240  0.11390  0.58400  Biso   1.000  C
  H101     1.0000 0.76960  0.11610  0.55600  Biso   1.000  H
  C111     1.0000 0.75220  0.01740  0.87970  Biso   1.000  C
  H102     1.0000 0.75270  0.97670  0.87490  Biso   1.000  H
  H103     1.0000 0.78870  0.02820  0.92860  Biso   1.000  H
  C112     1.0000 0.75520  0.04310  0.81090  Biso   1.000  C
  H104     1.0000 0.79660  0.03910  0.81770  Biso   1.000  H
  H105     1.0000 0.72720  0.02360  0.76200  Biso   1.000  H
  C113     1.0000 0.69730  0.03390  0.88670  Biso   1.000  C
  H106     1.0000 0.66090  0.02160  0.83870  Biso   1.000  H
  H107     1.0000 0.69800  0.01410  0.93200  Biso   1.000  H
  C114     1.0000 0.69230  0.09550  0.89740  Biso   1.000  C
  H108     1.0000 0.71760  0.10530  0.95350  Biso   1.000  H
  H109     1.0000 0.65000  0.10490  0.88240  Biso   1.000  H
  C115     1.0000 0.84260  0.08770  0.54910  Biso   1.000  C
  H110     1.0000 0.82030  0.07270  0.49770  Biso   1.000  H
  C116     1.0000 0.90440  0.08310  0.58760  Biso   1.000  C
  C117     1.0000 0.93630  0.10990  0.65990  Biso   1.000  C
  H111     1.0000 0.97910  0.11030  0.68550  Biso   1.000  H
  C118     1.0000 0.90560  0.13590  0.69460  Biso   1.000  C
  H112     1.0000 0.92810  0.15330  0.74430  Biso   1.000  H
  C119     1.0000 0.93860  0.05200  0.55380  Biso   1.000  C
  C120     1.0000 0.94280  0.31320  0.95220  Biso   1.000  C
  H113     1.0000 0.93870  0.34720  0.92150  Biso   1.000  H
  H114     1.0000 0.98640  0.30790  0.98810  Biso   1.000  H
  C121     1.0000 0.92150  0.26520  0.89530  Biso   1.000  C
  H115     1.0000 0.94270  0.23110  0.92300  Biso   1.000  H
  H116     1.0000 0.93150  0.27230  0.85230  Biso   1.000  H
  C122     1.0000 0.91430  0.32260  0.99880  Biso   1.000  C
  H117     1.0000 0.92650  0.29260  0.03830  Biso   1.000  H
  H118     1.0000 0.93040  0.35760  0.02800  Biso   1.000  H
  C123     1.0000 0.84640  0.32620  0.95780  Biso   1.000  C
  H119     1.0000 0.83370  0.36450  0.93910  Biso   1.000  H
  H120     1.0000 0.83140  0.31690  0.99550  Biso   1.000  H
  C124     1.0000 0.59170  0.27340  0.48680  Biso   1.000  C
  H121     1.0000 0.56560  0.24090  0.47910  Biso   1.000  H
  H122     1.0000 0.58340  0.28690  0.43410  Biso   1.000  H
  C125     1.0000 0.65800  0.25550  0.53250  Biso   1.000  C
  H123     1.0000 0.68400  0.28380  0.52650  Biso   1.000  H
  H124     1.0000 0.66380  0.22020  0.51100  Biso   1.000  H
  C126     1.0000 0.57620  0.31810  0.52830  Biso   1.000  C
  H125     1.0000 0.60300  0.35020  0.53710  Biso   1.000  H
  H126     1.0000 0.53420  0.33040  0.49410  Biso   1.000  H
  C127     1.0000 0.58220  0.29940  0.60640  Biso   1.000  C
  H127     1.0000 0.54700  0.27630  0.59730  Biso   1.000  H
  H128     1.0000 0.58260  0.33210  0.63750  Biso   1.000  H
  O37      1.0000 0.49820  0.42948  0.93570  Biso   1.000  O
  O38      1.0000 0.58135  0.42940  0.05230  Biso   1.000  O
  C128     1.0000 0.54980  0.41140  0.98340  Biso   1.000  C
  O39      1.0000 0.99350  0.04173  0.59920  Biso   1.000  O
  O40      1.0000 0.91020  0.03911  0.48240  Biso   1.000  O
  Zn5      1.0000 0.55440  0.49893  0.57986  Biso   1.000  Zn
  Fe5      1.0000 0.73757  0.78361  0.27476  Biso   1.000  Fe
  C129     1.0000 0.63280  0.70110  0.38900  Biso   1.000  C
  C130     1.0000 0.57450  0.68090  0.34330  Biso   1.000  C
  H129     1.0000 0.55320  0.69050  0.28910  Biso   1.000  H
  C131     1.0000 0.54680  0.64730  0.37460  Biso   1.000  C
  H130     1.0000 0.50690  0.63450  0.34190  Biso   1.000  H
  C132     1.0000 0.57670  0.63200  0.45340  Biso   1.000  C
  C133     1.0000 0.63350  0.65390  0.50200  Biso   1.000  C
  H131     1.0000 0.65340  0.64580  0.55670  Biso   1.000  H
  C134     1.0000 0.66080  0.68780  0.46960  Biso   1.000  C
  H132     1.0000 0.69970  0.70250  0.50320  Biso   1.000  H
  B9       1.0000 0.66880  0.73190  0.35150  Biso   1.000  B
  O41      1.0000 0.62980  0.73140  0.26340  Biso   1.000  O
  N25      1.0000 0.66120  0.74860  0.22420  Biso   1.000  N
  C135     1.0000 0.63870  0.73310  0.15160  Biso   1.000  C
  C136     1.0000 0.67570  0.75150  0.11810  Biso   1.000  C
  N26      1.0000 0.72500  0.77380  0.17060  Biso   1.000  N
  O42      1.0000 0.76450  0.79437  0.14460  Biso   1.000  O
  B10      1.0000 0.80690  0.83580  0.19950  Biso   1.000  B
  N27      1.0000 0.76220  0.72460  0.34920  Biso   1.000  N
  O43      1.0000 0.72427  0.70023  0.37370  Biso   1.000  O
  C137     1.0000 0.81950  0.71280  0.38940  Biso   1.000  C
  C138     1.0000 0.85490  0.74300  0.36130  Biso   1.000  C
  N28      1.0000 0.82170  0.77890  0.30830  Biso   1.000  N
  O44      1.0000 0.84998  0.80810  0.27300  Biso   1.000  O
  O45      1.0000 0.68422  0.78927  0.37990  Biso   1.000  O
  N29      1.0000 0.71070  0.81780  0.34210  Biso   1.000  N
  C139     1.0000 0.71230  0.87160  0.34840  Biso   1.000  C
  C140     1.0000 0.73880  0.89670  0.30380  Biso   1.000  C
  N30      1.0000 0.74640  0.86030  0.25950  Biso   1.000  N
  O46      1.0000 0.77430  0.87974  0.21660  Biso   1.000  O
  C141     1.0000 0.84250  0.86290  0.15840  Biso   1.000  C
  C142     1.0000 0.81240  0.88610  0.08400  Biso   1.000  C
  H133     1.0000 0.76960  0.88390  0.05600  Biso   1.000  H
  C143     1.0000 0.75220  0.98260  0.37970  Biso   1.000  C
  H134     1.0000 0.75270  0.02330  0.37490  Biso   1.000  H
  H135     1.0000 0.78870  0.97180  0.42860  Biso   1.000  H
  C144     1.0000 0.75520  0.95690  0.31090  Biso   1.000  C
  H136     1.0000 0.79660  0.96090  0.31770  Biso   1.000  H
  H137     1.0000 0.72720  0.97640  0.26200  Biso   1.000  H
  C145     1.0000 0.69730  0.96610  0.38670  Biso   1.000  C
  H138     1.0000 0.66090  0.97840  0.33870  Biso   1.000  H
  H139     1.0000 0.69800  0.98590  0.43200  Biso   1.000  H
  C146     1.0000 0.69230  0.90450  0.39740  Biso   1.000  C
  H140     1.0000 0.71760  0.89470  0.45350  Biso   1.000  H
  H141     1.0000 0.65000  0.89510  0.38240  Biso   1.000  H
  C147     1.0000 0.84260  0.91230  0.04910  Biso   1.000  C
  H142     1.0000 0.82030  0.92730  0.99770  Biso   1.000  H
  C148     1.0000 0.90440  0.91690  0.08760  Biso   1.000  C
  C149     1.0000 0.93630  0.89010  0.15990  Biso   1.000  C
  H143     1.0000 0.97910  0.88970  0.18550  Biso   1.000  H
  C150     1.0000 0.90560  0.86410  0.19460  Biso   1.000  C
  H144     1.0000 0.92810  0.84670  0.24430  Biso   1.000  H
  C151     1.0000 0.93860  0.94800  0.05380  Biso   1.000  C
  C152     1.0000 0.94280  0.68680  0.45220  Biso   1.000  C
  H145     1.0000 0.93870  0.65280  0.42150  Biso   1.000  H
  H146     1.0000 0.98640  0.69210  0.48810  Biso   1.000  H
  C153     1.0000 0.92150  0.73480  0.39530  Biso   1.000  C
  H147     1.0000 0.94270  0.76890  0.42300  Biso   1.000  H
  H148     1.0000 0.93150  0.72770  0.35230  Biso   1.000  H
  C154     1.0000 0.91430  0.67740  0.49880  Biso   1.000  C
  H149     1.0000 0.92650  0.70740  0.53830  Biso   1.000  H
  H150     1.0000 0.93040  0.64240  0.52800  Biso   1.000  H
  C155     1.0000 0.84640  0.67380  0.45780  Biso   1.000  C
  H151     1.0000 0.83370  0.63550  0.43910  Biso   1.000  H
  H152     1.0000 0.83140  0.68310  0.49550  Biso   1.000  H
  C156     1.0000 0.59170  0.72660  0.98680  Biso   1.000  C
  H153     1.0000 0.56560  0.75910  0.97910  Biso   1.000  H
  H154     1.0000 0.58340  0.71310  0.93410  Biso   1.000  H
  C157     1.0000 0.65800  0.74450  0.03250  Biso   1.000  C
  H155     1.0000 0.68400  0.71620  0.02650  Biso   1.000  H
  H156     1.0000 0.66380  0.77980  0.01100  Biso   1.000  H
  C158     1.0000 0.57620  0.68190  0.02830  Biso   1.000  C
  H157     1.0000 0.60300  0.64980  0.03710  Biso   1.000  H
  H158     1.0000 0.53420  0.66960  0.99410  Biso   1.000  H
  C159     1.0000 0.58220  0.70060  0.10640  Biso   1.000  C
  H159     1.0000 0.54700  0.72370  0.09730  Biso   1.000  H
  H160     1.0000 0.58260  0.66790  0.13750  Biso   1.000  H
  O47      1.0000 0.49820  0.57052  0.43570  Biso   1.000  O
  O48      1.0000 0.58135  0.57060  0.55230  Biso   1.000  O
  C160     1.0000 0.54980  0.58860  0.48340  Biso   1.000  C
  O49      1.0000 0.99350  0.95827  0.09920  Biso   1.000  O
  O50      1.0000 0.91020  0.96089  0.98240  Biso   1.000  O
  Zn6      1.0000 0.94560  0.99893  0.92014  Biso   1.000  Zn
  Fe6      1.0000 0.76243  0.28361  0.22524  Biso   1.000  Fe
  C161     1.0000 0.86720  0.20110  0.11100  Biso   1.000  C
  C162     1.0000 0.92550  0.18090  0.15670  Biso   1.000  C
  H161     1.0000 0.94680  0.19050  0.21090  Biso   1.000  H
  C163     1.0000 0.95320  0.14730  0.12540  Biso   1.000  C
  H162     1.0000 0.99310  0.13450  0.15810  Biso   1.000  H
  C164     1.0000 0.92330  0.13200  0.04660  Biso   1.000  C
  C165     1.0000 0.86650  0.15390  0.99800  Biso   1.000  C
  H163     1.0000 0.84660  0.14580  0.94330  Biso   1.000  H
  C166     1.0000 0.83920  0.18780  0.03040  Biso   1.000  C
  H164     1.0000 0.80030  0.20250  0.99680  Biso   1.000  H
  B11      1.0000 0.83120  0.23190  0.14850  Biso   1.000  B
  O51      1.0000 0.87020  0.23140  0.23660  Biso   1.000  O
  N31      1.0000 0.83880  0.24860  0.27580  Biso   1.000  N
  C167     1.0000 0.86130  0.23310  0.34840  Biso   1.000  C
  C168     1.0000 0.82430  0.25150  0.38190  Biso   1.000  C
  N32      1.0000 0.77500  0.27380  0.32940  Biso   1.000  N
  O52      1.0000 0.73550  0.29437  0.35540  Biso   1.000  O
  B12      1.0000 0.69310  0.33580  0.30050  Biso   1.000  B
  N33      1.0000 0.73780  0.22460  0.15080  Biso   1.000  N
  O53      1.0000 0.77573  0.20023  0.12630  Biso   1.000  O
  C169     1.0000 0.68050  0.21280  0.11060  Biso   1.000  C
  C170     1.0000 0.64510  0.24300  0.13870  Biso   1.000  C
  N34      1.0000 0.67830  0.27890  0.19170  Biso   1.000  N
  O54      1.0000 0.65002  0.30810  0.22700  Biso   1.000  O
  O55      1.0000 0.81578  0.28927  0.12010  Biso   1.000  O
  N35      1.0000 0.78930  0.31780  0.15790  Biso   1.000  N
  C171     1.0000 0.78770  0.37160  0.15160  Biso   1.000  C
  C172     1.0000 0.76120  0.39670  0.19620  Biso   1.000  C
  N36      1.0000 0.75360  0.36030  0.24050  Biso   1.000  N
  O56      1.0000 0.72570  0.37974  0.28340  Biso   1.000  O
  C173     1.0000 0.65750  0.36290  0.34160  Biso   1.000  C
  C174     1.0000 0.68760  0.38610  0.41600  Biso   1.000  C
  H165     1.0000 0.73040  0.38390  0.44400  Biso   1.000  H
  C175     1.0000 0.74780  0.48260  0.12030  Biso   1.000  C
  H166     1.0000 0.74730  0.52330  0.12510  Biso   1.000  H
  H167     1.0000 0.71130  0.47180  0.07140  Biso   1.000  H
  C176     1.0000 0.74480  0.45690  0.18910  Biso   1.000  C
  H168     1.0000 0.70340  0.46090  0.18230  Biso   1.000  H
  H169     1.0000 0.77280  0.47640  0.23800  Biso   1.000  H
  C177     1.0000 0.80270  0.46610  0.11330  Biso   1.000  C
  H170     1.0000 0.83910  0.47840  0.16130  Biso   1.000  H
  H171     1.0000 0.80200  0.48590  0.06800  Biso   1.000  H
  C178     1.0000 0.80770  0.40450  0.10260  Biso   1.000  C
  H172     1.0000 0.78240  0.39470  0.04650  Biso   1.000  H
  H173     1.0000 0.85000  0.39510  0.11760  Biso   1.000  H
  C179     1.0000 0.65740  0.41230  0.45090  Biso   1.000  C
  H174     1.0000 0.67970  0.42730  0.50230  Biso   1.000  H
  C180     1.0000 0.59560  0.41690  0.41240  Biso   1.000  C
  C181     1.0000 0.56370  0.39010  0.34010  Biso   1.000  C
  H175     1.0000 0.52090  0.38970  0.31450  Biso   1.000  H
  C182     1.0000 0.59440  0.36410  0.30540  Biso   1.000  C
  H176     1.0000 0.57190  0.34670  0.25570  Biso   1.000  H
  C183     1.0000 0.56140  0.44800  0.44620  Biso   1.000  C
  C184     1.0000 0.55720  0.18680  0.04780  Biso   1.000  C
  H177     1.0000 0.56130  0.15280  0.07850  Biso   1.000  H
  H178     1.0000 0.51360  0.19210  0.01190  Biso   1.000  H
  C185     1.0000 0.57850  0.23480  0.10470  Biso   1.000  C
  H179     1.0000 0.55730  0.26890  0.07700  Biso   1.000  H
  H180     1.0000 0.56850  0.22770  0.14770  Biso   1.000  H
  C186     1.0000 0.58570  0.17740  0.00120  Biso   1.000  C
  H181     1.0000 0.57350  0.20740  0.96170  Biso   1.000  H
  H182     1.0000 0.56960  0.14240  0.97200  Biso   1.000  H
  C187     1.0000 0.65360  0.17380  0.04220  Biso   1.000  C
  H183     1.0000 0.66630  0.13550  0.06090  Biso   1.000  H
  H184     1.0000 0.66860  0.18310  0.00450  Biso   1.000  H
  C188     1.0000 0.90830  0.22660  0.51320  Biso   1.000  C
  H185     1.0000 0.93440  0.25910  0.52090  Biso   1.000  H
  H186     1.0000 0.91660  0.21310  0.56590  Biso   1.000  H
  C189     1.0000 0.84200  0.24450  0.46750  Biso   1.000  C
  H187     1.0000 0.81600  0.21620  0.47350  Biso   1.000  H
  H188     1.0000 0.83620  0.27980  0.48900  Biso   1.000  H
  C190     1.0000 0.92380  0.18190  0.47170  Biso   1.000  C
  H189     1.0000 0.89700  0.14980  0.46290  Biso   1.000  H
  H190     1.0000 0.96580  0.16960  0.50590  Biso   1.000  H
  C191     1.0000 0.91780  0.20060  0.39360  Biso   1.000  C
  H191     1.0000 0.95300  0.22370  0.40270  Biso   1.000  H
  H192     1.0000 0.91740  0.16790  0.36250  Biso   1.000  H
  O57      1.0000 0.00180  0.07052  0.06430  Biso   1.000  O
  O58      1.0000 0.91865  0.07060  0.94770  Biso   1.000  O
  C192     1.0000 0.95020  0.08860  0.01660  Biso   1.000  C
  O59      1.0000 0.50650  0.45827  0.40080  Biso   1.000  O
  O60      1.0000 0.58980  0.46089  0.51760  Biso   1.000  O
  Zn7      1.0000 0.44560  0.50107  0.42014  Biso   1.000  Zn
  Fe7      1.0000 0.26243  0.21639  0.72524  Biso   1.000  Fe
  C193     1.0000 0.36720  0.29890  0.61100  Biso   1.000  C
  C194     1.0000 0.42550  0.31910  0.65670  Biso   1.000  C
  H193     1.0000 0.44680  0.30950  0.71090  Biso   1.000  H
  C195     1.0000 0.45320  0.35270  0.62540  Biso   1.000  C
  H194     1.0000 0.49310  0.36550  0.65810  Biso   1.000  H
  C196     1.0000 0.42330  0.36800  0.54660  Biso   1.000  C
  C197     1.0000 0.36650  0.34610  0.49800  Biso   1.000  C
  H195     1.0000 0.34660  0.35420  0.44330  Biso   1.000  H
  C198     1.0000 0.33920  0.31220  0.53040  Biso   1.000  C
  H196     1.0000 0.30030  0.29750  0.49680  Biso   1.000  H
  B13      1.0000 0.33120  0.26810  0.64850  Biso   1.000  B
  O61      1.0000 0.37020  0.26860  0.73660  Biso   1.000  O
  N37      1.0000 0.33880  0.25140  0.77580  Biso   1.000  N
  C199     1.0000 0.36130  0.26690  0.84840  Biso   1.000  C
  C200     1.0000 0.32430  0.24850  0.88190  Biso   1.000  C
  N38      1.0000 0.27500  0.22620  0.82940  Biso   1.000  N
  O62      1.0000 0.23550  0.20563  0.85540  Biso   1.000  O
  B14      1.0000 0.19310  0.16420  0.80050  Biso   1.000  B
  N39      1.0000 0.23780  0.27540  0.65080  Biso   1.000  N
  O63      1.0000 0.27573  0.29977  0.62630  Biso   1.000  O
  C201     1.0000 0.18050  0.28720  0.61060  Biso   1.000  C
  C202     1.0000 0.14510  0.25700  0.63870  Biso   1.000  C
  N40      1.0000 0.17830  0.22110  0.69170  Biso   1.000  N
  O64      1.0000 0.15002  0.19190  0.72700  Biso   1.000  O
  O65      1.0000 0.31578  0.21073  0.62010  Biso   1.000  O
  N41      1.0000 0.28930  0.18220  0.65790  Biso   1.000  N
  C203     1.0000 0.28770  0.12840  0.65160  Biso   1.000  C
  C204     1.0000 0.26120  0.10330  0.69620  Biso   1.000  C
  N42      1.0000 0.25360  0.13970  0.74050  Biso   1.000  N
  O66      1.0000 0.22570  0.12026  0.78340  Biso   1.000  O
  C205     1.0000 0.15750  0.13710  0.84160  Biso   1.000  C
  C206     1.0000 0.18760  0.11390  0.91600  Biso   1.000  C
  H197     1.0000 0.23040  0.11610  0.94400  Biso   1.000  H
  C207     1.0000 0.24780  0.01740  0.62030  Biso   1.000  C
  H198     1.0000 0.24730  0.97670  0.62510  Biso   1.000  H
  H199     1.0000 0.21130  0.02820  0.57140  Biso   1.000  H
  C208     1.0000 0.24480  0.04310  0.68910  Biso   1.000  C
  H200     1.0000 0.20340  0.03910  0.68230  Biso   1.000  H
  H201     1.0000 0.27280  0.02360  0.73800  Biso   1.000  H
  C209     1.0000 0.30270  0.03390  0.61330  Biso   1.000  C
  H202     1.0000 0.33910  0.02160  0.66130  Biso   1.000  H
  H203     1.0000 0.30200  0.01410  0.56800  Biso   1.000  H
  C210     1.0000 0.30770  0.09550  0.60260  Biso   1.000  C
  H204     1.0000 0.28240  0.10530  0.54650  Biso   1.000  H
  H205     1.0000 0.35000  0.10490  0.61760  Biso   1.000  H
  C211     1.0000 0.15740  0.08770  0.95090  Biso   1.000  C
  H206     1.0000 0.17970  0.07270  0.00230  Biso   1.000  H
  C212     1.0000 0.09560  0.08310  0.91240  Biso   1.000  C
  C213     1.0000 0.06370  0.10990  0.84010  Biso   1.000  C
  H207     1.0000 0.02090  0.11030  0.81450  Biso   1.000  H
  C214     1.0000 0.09440  0.13590  0.80540  Biso   1.000  C
  H208     1.0000 0.07190  0.15330  0.75570  Biso   1.000  H
  C215     1.0000 0.06140  0.05200  0.94620  Biso   1.000  C
  C216     1.0000 0.05720  0.31320  0.54780  Biso   1.000  C
  H209     1.0000 0.06130  0.34720  0.57850  Biso   1.000  H
  H210     1.0000 0.01360  0.30790  0.51190  Biso   1.000  H
  C217     1.0000 0.07850  0.26520  0.60470  Biso   1.000  C
  H211     1.0000 0.05730  0.23110  0.57700  Biso   1.000  H
  H212     1.0000 0.06850  0.27230  0.64770  Biso   1.000  H
  C218     1.0000 0.08570  0.32260  0.50120  Biso   1.000  C
  H213     1.0000 0.07350  0.29260  0.46170  Biso   1.000  H
  H214     1.0000 0.06960  0.35760  0.47200  Biso   1.000  H
  C219     1.0000 0.15360  0.32620  0.54220  Biso   1.000  C
  H215     1.0000 0.16630  0.36450  0.56090  Biso   1.000  H
  H216     1.0000 0.16860  0.31690  0.50450  Biso   1.000  H
  C220     1.0000 0.40830  0.27340  0.01320  Biso   1.000  C
  H217     1.0000 0.43440  0.24090  0.02090  Biso   1.000  H
  H218     1.0000 0.41660  0.28690  0.06590  Biso   1.000  H
  C221     1.0000 0.34200  0.25550  0.96750  Biso   1.000  C
  H219     1.0000 0.31600  0.28380  0.97350  Biso   1.000  H
  H220     1.0000 0.33620  0.22020  0.98900  Biso   1.000  H
  C222     1.0000 0.42380  0.31810  0.97170  Biso   1.000  C
  H221     1.0000 0.39700  0.35020  0.96290  Biso   1.000  H
  H222     1.0000 0.46580  0.33040  0.00590  Biso   1.000  H
  C223     1.0000 0.41780  0.29940  0.89360  Biso   1.000  C
  H223     1.0000 0.45300  0.27630  0.90270  Biso   1.000  H
  H224     1.0000 0.41740  0.33210  0.86250  Biso   1.000  H
  O67      1.0000 0.50180  0.42948  0.56430  Biso   1.000  O
  O68      1.0000 0.41865  0.42940  0.44770  Biso   1.000  O
  C224     1.0000 0.45020  0.41140  0.51660  Biso   1.000  C
  O69      1.0000 0.00650  0.04173  0.90080  Biso   1.000  O
  O70      1.0000 0.08980  0.03911  0.01760  Biso   1.000  O
  Zn8      1.0000 0.05440  0.00107  0.07986  Biso   1.000  Zn
  Fe8      1.0000 0.23757  0.71639  0.77476  Biso   1.000  Fe
  C225     1.0000 0.13280  0.79890  0.88900  Biso   1.000  C
  C226     1.0000 0.07450  0.81910  0.84330  Biso   1.000  C
  H225     1.0000 0.05320  0.80950  0.78910  Biso   1.000  H
  C227     1.0000 0.04680  0.85270  0.87460  Biso   1.000  C
  H226     1.0000 0.00690  0.86550  0.84190  Biso   1.000  H
  C228     1.0000 0.07670  0.86800  0.95340  Biso   1.000  C
  C229     1.0000 0.13350  0.84610  0.00200  Biso   1.000  C
  H227     1.0000 0.15340  0.85420  0.05670  Biso   1.000  H
  C230     1.0000 0.16080  0.81220  0.96960  Biso   1.000  C
  H228     1.0000 0.19970  0.79750  0.00320  Biso   1.000  H
  B15      1.0000 0.16880  0.76810  0.85150  Biso   1.000  B
  O71      1.0000 0.12980  0.76860  0.76340  Biso   1.000  O
  N43      1.0000 0.16120  0.75140  0.72420  Biso   1.000  N
  C231     1.0000 0.13870  0.76690  0.65160  Biso   1.000  C
  C232     1.0000 0.17570  0.74850  0.61810  Biso   1.000  C
  N44      1.0000 0.22500  0.72620  0.67060  Biso   1.000  N
  O72      1.0000 0.26450  0.70563  0.64460  Biso   1.000  O
  B16      1.0000 0.30690  0.66420  0.69950  Biso   1.000  B
  N45      1.0000 0.26220  0.77540  0.84920  Biso   1.000  N
  O73      1.0000 0.22427  0.79977  0.87370  Biso   1.000  O
  C233     1.0000 0.31950  0.78720  0.88940  Biso   1.000  C
  C234     1.0000 0.35490  0.75700  0.86130  Biso   1.000  C
  N46      1.0000 0.32170  0.72110  0.80830  Biso   1.000  N
  O74      1.0000 0.34998  0.69190  0.77300  Biso   1.000  O
  O75      1.0000 0.18422  0.71073  0.87990  Biso   1.000  O
  N47      1.0000 0.21070  0.68220  0.84210  Biso   1.000  N
  C235     1.0000 0.21230  0.62840  0.84840  Biso   1.000  C
  C236     1.0000 0.23880  0.60330  0.80380  Biso   1.000  C
  N48      1.0000 0.24640  0.63970  0.75950  Biso   1.000  N
  O76      1.0000 0.27430  0.62026  0.71660  Biso   1.000  O
  C237     1.0000 0.34250  0.63710  0.65840  Biso   1.000  C
  C238     1.0000 0.31240  0.61390  0.58400  Biso   1.000  C
  H229     1.0000 0.26960  0.61610  0.55600  Biso   1.000  H
  C239     1.0000 0.25220  0.51740  0.87970  Biso   1.000  C
  H230     1.0000 0.25270  0.47670  0.87490  Biso   1.000  H
  H231     1.0000 0.28870  0.52820  0.92860  Biso   1.000  H
  C240     1.0000 0.25520  0.54310  0.81090  Biso   1.000  C
  H232     1.0000 0.29660  0.53910  0.81770  Biso   1.000  H
  H233     1.0000 0.22720  0.52360  0.76200  Biso   1.000  H
  C241     1.0000 0.19730  0.53390  0.88670  Biso   1.000  C
  H234     1.0000 0.16090  0.52160  0.83870  Biso   1.000  H
  H235     1.0000 0.19800  0.51410  0.93200  Biso   1.000  H
  C242     1.0000 0.19230  0.59550  0.89740  Biso   1.000  C
  H236     1.0000 0.21760  0.60530  0.95350  Biso   1.000  H
  H237     1.0000 0.15000  0.60490  0.88240  Biso   1.000  H
  C243     1.0000 0.34260  0.58770  0.54910  Biso   1.000  C
  H238     1.0000 0.32030  0.57270  0.49770  Biso   1.000  H
  C244     1.0000 0.40440  0.58310  0.58760  Biso   1.000  C
  C245     1.0000 0.43630  0.60990  0.65990  Biso   1.000  C
  H239     1.0000 0.47910  0.61030  0.68550  Biso   1.000  H
  C246     1.0000 0.40560  0.63590  0.69460  Biso   1.000  C
  H240     1.0000 0.42810  0.65330  0.74430  Biso   1.000  H
  C247     1.0000 0.43860  0.55200  0.55380  Biso   1.000  C
  C248     1.0000 0.44280  0.81320  0.95220  Biso   1.000  C
  H241     1.0000 0.43870  0.84720  0.92150  Biso   1.000  H
  H242     1.0000 0.48640  0.80790  0.98810  Biso   1.000  H
  C249     1.0000 0.42150  0.76520  0.89530  Biso   1.000  C
  H243     1.0000 0.44270  0.73110  0.92300  Biso   1.000  H
  H244     1.0000 0.43150  0.77230  0.85230  Biso   1.000  H
  C250     1.0000 0.41430  0.82260  0.99880  Biso   1.000  C
  H245     1.0000 0.42650  0.79260  0.03830  Biso   1.000  H
  H246     1.0000 0.43040  0.85760  0.02800  Biso   1.000  H
  C251     1.0000 0.34640  0.82620  0.95780  Biso   1.000  C
  H247     1.0000 0.33370  0.86450  0.93910  Biso   1.000  H
  H248     1.0000 0.33140  0.81690  0.99550  Biso   1.000  H
  C252     1.0000 0.09170  0.77340  0.48680  Biso   1.000  C
  H249     1.0000 0.06560  0.74090  0.47910  Biso   1.000  H
  H250     1.0000 0.08340  0.78690  0.43410  Biso   1.000  H
  C253     1.0000 0.15800  0.75550  0.53250  Biso   1.000  C
  H251     1.0000 0.18400  0.78380  0.52650  Biso   1.000  H
  H252     1.0000 0.16380  0.72020  0.51100  Biso   1.000  H
  C254     1.0000 0.07620  0.81810  0.52830  Biso   1.000  C
  H253     1.0000 0.10300  0.85020  0.53710  Biso   1.000  H
  H254     1.0000 0.03420  0.83040  0.49410  Biso   1.000  H
  C255     1.0000 0.08220  0.79940  0.60640  Biso   1.000  C
  H255     1.0000 0.04700  0.77630  0.59730  Biso   1.000  H
  H256     1.0000 0.08260  0.83210  0.63750  Biso   1.000  H
  O77      1.0000 0.99820  0.92948  0.93570  Biso   1.000  O
  O78      1.0000 0.08135  0.92940  0.05230  Biso   1.000  O
  C256     1.0000 0.04980  0.91140  0.98340  Biso   1.000  C
  O79      1.0000 0.49350  0.54173  0.59920  Biso   1.000  O
  O80      1.0000 0.41020  0.53911  0.48240  Biso   1.000  O
