data_image0
_cell_length_a       39.334
_cell_length_b       19.8329
_cell_length_c       16.0292
_cell_angle_alpha    90
_cell_angle_beta     98.418
_cell_angle_gamma    90

_symmetry_space_group_name_H-M    "P 1"
_symmetry_int_tables_number       1

loop_
  _symmetry_equiv_pos_as_xyz
  'x, y, z'

loop_
  _atom_site_label
  _atom_site_occupancy
  _atom_site_fract_x
  _atom_site_fract_y
  _atom_site_fract_z
  _atom_site_thermal_displace_type
  _atom_site_B_iso_or_equiv
  _atom_site_type_symbol
  Fe1      1.0000 0.49987  0.08654  0.14017  Biso   1.000  Fe
  N1       1.0000 0.48457  0.98892  0.10441  Biso   1.000  N
  N2       1.0000 0.51470  0.18440  0.11468  Biso   1.000  N
  N3       1.0000 0.54963  0.05686  0.12884  Biso   1.000  N
  N4       1.0000 0.44945  0.11620  0.09710  Biso   1.000  N
  O1       1.0000 0.59934  0.64509  0.27140  Biso   1.000  O
  O2       1.0000 0.71558  0.35260  0.20570  Biso   1.000  O
  O3       1.0000 0.28828  0.82390  0.12140  Biso   1.000  O
  O4       1.0000 0.62357  0.64842  0.15530  Biso   1.000  O
  C1       1.0000 0.45148  0.96534  0.08546  Biso   1.000  C
  C2       1.0000 0.54769  0.20756  0.11468  Biso   1.000  C
  O5       1.0000 0.26434  0.89380  0.02100  Biso   1.000  O
  C3       1.0000 0.54182  0.93398  0.13246  Biso   1.000  C
  C4       1.0000 0.50563  0.93370  0.10767  Biso   1.000  C
  C5       1.0000 0.56161  0.99266  0.14340  Biso   1.000  C
  C6       1.0000 0.49341  0.23923  0.10408  Biso   1.000  C
  C7       1.0000 0.43781  0.18043  0.10473  Biso   1.000  C
  C8       1.0000 0.45237  0.89366  0.07138  Biso   1.000  C
  H1       1.0000 0.43310  0.86510  0.05550  Biso   1.000  H
  C9       1.0000 0.42166  0.00441  0.08579  Biso   1.000  C
  C10      1.0000 0.57788  0.09857  0.14220  Biso   1.000  C
  C11      1.0000 0.58524  0.84593  0.10725  Biso   1.000  C
  H2       1.0000 0.59250  0.87330  0.06450  Biso   1.000  H
  C12      1.0000 0.45803  0.23904  0.10567  Biso   1.000  C
  C13      1.0000 0.55884  0.86814  0.15019  Biso   1.000  C
  C14      1.0000 0.42133  0.07472  0.09553  Biso   1.000  C
  C15      1.0000 0.57724  0.16914  0.13134  Biso   1.000  C
  C16      1.0000 0.48568  0.87464  0.08505  Biso   1.000  C
  H3       1.0000 0.49420  0.83020  0.08050  Biso   1.000  H
  C17      1.0000 0.54923  0.82720  0.21400  Biso   1.000  C
  H4       1.0000 0.53160  0.84180  0.24460  Biso   1.000  H
  C18      1.0000 0.38344  0.91696  0.13520  Biso   1.000  C
  H5       1.0000 0.40220  0.90320  0.17590  Biso   1.000  H
  C19      1.0000 0.32881  0.95501  0.01590  Biso   1.000  C
  H6       1.0000 0.31010  0.96810  0.97470  Biso   1.000  H
  C20      1.0000 0.54652  0.27891  0.09750  Biso   1.000  C
  H7       1.0000 0.56560  0.30690  0.09110  Biso   1.000  H
  C21      1.0000 0.39170  0.11428  0.10435  Biso   1.000  C
  H8       1.0000 0.36910  0.09780  0.10600  Biso   1.000  H
  C22      1.0000 0.40183  0.17958  0.10988  Biso   1.000  C
  H9       1.0000 0.38770  0.21760  0.11600  Biso   1.000  H
  C23      1.0000 0.59854  0.99375  0.16965  Biso   1.000  C
  H10      1.0000 0.61300  0.95600  0.18450  Biso   1.000  H
  C24      1.0000 0.60812  0.05873  0.16870  Biso   1.000  C
  H11      1.0000 0.63090  0.07540  0.18300  Biso   1.000  H
  C25      1.0000 0.44103  0.30525  0.11430  Biso   1.000  C
  C26      1.0000 0.51346  0.29862  0.09230  Biso   1.000  C
  H12      1.0000 0.50500  0.34320  0.08260  Biso   1.000  H
  C27      1.0000 0.38800  0.96806  0.07911  Biso   1.000  C
  C28      1.0000 0.44903  0.34175  0.18990  Biso   1.000  C
  H13      1.0000 0.46550  0.32420  0.23370  Biso   1.000  H
  C29      1.0000 0.61940  0.25623  0.19750  Biso   1.000  C
  H14      1.0000 0.60290  0.27060  0.23160  Biso   1.000  H
  C30      1.0000 0.61139  0.20379  0.13890  Biso   1.000  C
  C31      1.0000 0.36037  0.98656  0.01820  Biso   1.000  C
  H15      1.0000 0.36320  0.02080  0.97840  Biso   1.000  H
  C32      1.0000 0.67547  0.26670  0.15530  Biso   1.000  C
  C33      1.0000 0.63553  0.18430  0.08920  Biso   1.000  C
  H16      1.0000 0.63030  0.14940  0.04880  Biso   1.000  H
  C34      1.0000 0.66762  0.21570  0.09800  Biso   1.000  C
  H17      1.0000 0.68420  0.20170  0.06390  Biso   1.000  H
  C35      1.0000 0.60087  0.78423  0.12670  Biso   1.000  C
  H18      1.0000 0.61870  0.76980  0.09680  Biso   1.000  H
  C36      1.0000 0.56500  0.76600  0.23300  Biso   1.000  C
  H19      1.0000 0.55820  0.73890  0.27650  Biso   1.000  H
  C37      1.0000 0.59119  0.74309  0.18860  Biso   1.000  C
  C38      1.0000 0.35168  0.88558  0.13250  Biso   1.000  C
  H20      1.0000 0.34880  0.85090  0.17170  Biso   1.000  H
  C39      1.0000 0.32421  0.90489  0.07260  Biso   1.000  C
  C40      1.0000 0.41750  0.33196  0.05120  Biso   1.000  C
  H21      1.0000 0.41170  0.30790  0.99980  Biso   1.000  H
  C41      1.0000 0.65108  0.28664  0.20540  Biso   1.000  C
  H22      1.0000 0.65650  0.32180  0.24540  Biso   1.000  H
  C42      1.0000 0.60689  0.67448  0.20510  Biso   1.000  C
  C43      1.0000 0.43350  0.40193  0.20130  Biso   1.000  C
  H23      1.0000 0.43860  0.42500  0.25360  Biso   1.000  H
  C44      1.0000 0.41080  0.42896  0.13830  Biso   1.000  C
  C45      1.0000 0.28939  0.87190  0.07030  Biso   1.000  C
  C46      1.0000 0.40215  0.39383  0.06190  Biso   1.000  C
  H24      1.0000 0.38600  0.41220  0.01800  Biso   1.000  H
  C47      1.0000 0.70966  0.30180  0.16320  Biso   1.000  C
  C48      1.0000 0.39495  0.49650  0.14730  Biso   1.000  C
  O6       1.0000 0.37739  0.52353  0.09040  Biso   1.000  O
  O7       1.0000 0.73076  0.27360  0.12020  Biso   1.000  O
  O8       1.0000 0.40198  0.52376  0.22050  Biso   1.000  O
  Fe2      1.0000 0.50013  0.08654  0.35983  Biso   1.000  Fe
  N5       1.0000 0.51543  0.98892  0.39559  Biso   1.000  N
  N6       1.0000 0.48530  0.18440  0.38532  Biso   1.000  N
  N7       1.0000 0.45037  0.05686  0.37116  Biso   1.000  N
  N8       1.0000 0.55055  0.11620  0.40290  Biso   1.000  N
  O9       1.0000 0.40066  0.64509  0.22860  Biso   1.000  O
  O10      1.0000 0.28442  0.35260  0.29430  Biso   1.000  O
  O11      1.0000 0.71172  0.82390  0.37860  Biso   1.000  O
  O12      1.0000 0.37643  0.64842  0.34470  Biso   1.000  O
  C49      1.0000 0.54852  0.96534  0.41454  Biso   1.000  C
  C50      1.0000 0.45231  0.20756  0.38532  Biso   1.000  C
  O13      1.0000 0.73566  0.89380  0.47900  Biso   1.000  O
  C51      1.0000 0.45818  0.93398  0.36754  Biso   1.000  C
  C52      1.0000 0.49437  0.93370  0.39233  Biso   1.000  C
  C53      1.0000 0.43839  0.99266  0.35660  Biso   1.000  C
  C54      1.0000 0.50659  0.23923  0.39592  Biso   1.000  C
  C55      1.0000 0.56219  0.18043  0.39527  Biso   1.000  C
  C56      1.0000 0.54763  0.89366  0.42862  Biso   1.000  C
  H25      1.0000 0.56690  0.86510  0.44450  Biso   1.000  H
  C57      1.0000 0.57834  0.00441  0.41421  Biso   1.000  C
  C58      1.0000 0.42212  0.09857  0.35780  Biso   1.000  C
  C59      1.0000 0.41476  0.84593  0.39275  Biso   1.000  C
  H26      1.0000 0.40750  0.87330  0.43550  Biso   1.000  H
  C60      1.0000 0.54197  0.23904  0.39433  Biso   1.000  C
  C61      1.0000 0.44116  0.86814  0.34981  Biso   1.000  C
  C62      1.0000 0.57867  0.07472  0.40447  Biso   1.000  C
  C63      1.0000 0.42276  0.16914  0.36866  Biso   1.000  C
  C64      1.0000 0.51432  0.87464  0.41495  Biso   1.000  C
  H27      1.0000 0.50580  0.83020  0.41950  Biso   1.000  H
  C65      1.0000 0.45077  0.82720  0.28600  Biso   1.000  C
  H28      1.0000 0.46840  0.84180  0.25540  Biso   1.000  H
  C66      1.0000 0.61656  0.91696  0.36480  Biso   1.000  C
  H29      1.0000 0.59780  0.90320  0.32410  Biso   1.000  H
  C67      1.0000 0.67119  0.95501  0.48410  Biso   1.000  C
  H30      1.0000 0.68990  0.96810  0.52530  Biso   1.000  H
  C68      1.0000 0.45348  0.27891  0.40250  Biso   1.000  C
  H31      1.0000 0.43440  0.30690  0.40890  Biso   1.000  H
  C69      1.0000 0.60830  0.11428  0.39565  Biso   1.000  C
  H32      1.0000 0.63090  0.09780  0.39400  Biso   1.000  H
  C70      1.0000 0.59817  0.17958  0.39012  Biso   1.000  C
  H33      1.0000 0.61230  0.21760  0.38400  Biso   1.000  H
  C71      1.0000 0.40146  0.99375  0.33035  Biso   1.000  C
  H34      1.0000 0.38700  0.95600  0.31550  Biso   1.000  H
  C72      1.0000 0.39188  0.05873  0.33130  Biso   1.000  C
  H35      1.0000 0.36910  0.07540  0.31700  Biso   1.000  H
  C73      1.0000 0.55897  0.30525  0.38570  Biso   1.000  C
  C74      1.0000 0.48654  0.29862  0.40770  Biso   1.000  C
  H36      1.0000 0.49500  0.34320  0.41740  Biso   1.000  H
  C75      1.0000 0.61200  0.96806  0.42089  Biso   1.000  C
  C76      1.0000 0.55097  0.34175  0.31010  Biso   1.000  C
  H37      1.0000 0.53450  0.32420  0.26630  Biso   1.000  H
  C77      1.0000 0.38060  0.25623  0.30250  Biso   1.000  C
  H38      1.0000 0.39710  0.27060  0.26840  Biso   1.000  H
  C78      1.0000 0.38861  0.20379  0.36110  Biso   1.000  C
  C79      1.0000 0.63963  0.98656  0.48180  Biso   1.000  C
  H39      1.0000 0.63680  0.02080  0.52160  Biso   1.000  H
  C80      1.0000 0.32453  0.26670  0.34470  Biso   1.000  C
  C81      1.0000 0.36447  0.18430  0.41080  Biso   1.000  C
  H40      1.0000 0.36970  0.14940  0.45120  Biso   1.000  H
  C82      1.0000 0.33238  0.21570  0.40200  Biso   1.000  C
  H41      1.0000 0.31580  0.20170  0.43610  Biso   1.000  H
  C83      1.0000 0.39913  0.78423  0.37330  Biso   1.000  C
  H42      1.0000 0.38130  0.76980  0.40320  Biso   1.000  H
  C84      1.0000 0.43500  0.76600  0.26700  Biso   1.000  C
  H43      1.0000 0.44180  0.73890  0.22350  Biso   1.000  H
  C85      1.0000 0.40881  0.74309  0.31140  Biso   1.000  C
  C86      1.0000 0.64832  0.88558  0.36750  Biso   1.000  C
  H44      1.0000 0.65120  0.85090  0.32830  Biso   1.000  H
  C87      1.0000 0.67579  0.90489  0.42740  Biso   1.000  C
  C88      1.0000 0.58250  0.33196  0.44880  Biso   1.000  C
  H45      1.0000 0.58830  0.30790  0.50020  Biso   1.000  H
  C89      1.0000 0.34892  0.28664  0.29460  Biso   1.000  C
  H46      1.0000 0.34350  0.32180  0.25460  Biso   1.000  H
  C90      1.0000 0.39311  0.67448  0.29490  Biso   1.000  C
  C91      1.0000 0.56650  0.40193  0.29870  Biso   1.000  C
  H47      1.0000 0.56140  0.42500  0.24640  Biso   1.000  H
  C92      1.0000 0.58920  0.42896  0.36170  Biso   1.000  C
  C93      1.0000 0.71061  0.87190  0.42970  Biso   1.000  C
  C94      1.0000 0.59785  0.39383  0.43810  Biso   1.000  C
  H48      1.0000 0.61400  0.41220  0.48200  Biso   1.000  H
  C95      1.0000 0.29034  0.30180  0.33680  Biso   1.000  C
  C96      1.0000 0.60505  0.49650  0.35270  Biso   1.000  C
  O14      1.0000 0.62261  0.52353  0.40960  Biso   1.000  O
  O15      1.0000 0.26924  0.27360  0.37980  Biso   1.000  O
  O16      1.0000 0.59802  0.52376  0.27950  Biso   1.000  O
  Fe3      1.0000 0.99987  0.58654  0.14017  Biso   1.000  Fe
  N9       1.0000 0.98457  0.48892  0.10441  Biso   1.000  N
  N10      1.0000 0.01470  0.68440  0.11468  Biso   1.000  N
  N11      1.0000 0.04963  0.55686  0.12884  Biso   1.000  N
  N12      1.0000 0.94945  0.61620  0.09710  Biso   1.000  N
  O17      1.0000 0.09934  0.14509  0.27140  Biso   1.000  O
  O18      1.0000 0.21558  0.85260  0.20570  Biso   1.000  O
  O19      1.0000 0.78828  0.32390  0.12140  Biso   1.000  O
  O20      1.0000 0.12357  0.14842  0.15530  Biso   1.000  O
  C97      1.0000 0.95148  0.46534  0.08546  Biso   1.000  C
  C98      1.0000 0.04769  0.70756  0.11468  Biso   1.000  C
  O21      1.0000 0.76434  0.39380  0.02100  Biso   1.000  O
  C99      1.0000 0.04182  0.43398  0.13246  Biso   1.000  C
  C100     1.0000 0.00563  0.43370  0.10767  Biso   1.000  C
  C101     1.0000 0.06161  0.49266  0.14340  Biso   1.000  C
  C102     1.0000 0.99341  0.73923  0.10408  Biso   1.000  C
  C103     1.0000 0.93781  0.68043  0.10473  Biso   1.000  C
  C104     1.0000 0.95237  0.39366  0.07138  Biso   1.000  C
  H49      1.0000 0.93310  0.36510  0.05550  Biso   1.000  H
  C105     1.0000 0.92166  0.50441  0.08579  Biso   1.000  C
  C106     1.0000 0.07788  0.59857  0.14220  Biso   1.000  C
  C107     1.0000 0.08524  0.34593  0.10725  Biso   1.000  C
  H50      1.0000 0.09250  0.37330  0.06450  Biso   1.000  H
  C108     1.0000 0.95803  0.73904  0.10567  Biso   1.000  C
  C109     1.0000 0.05884  0.36814  0.15019  Biso   1.000  C
  C110     1.0000 0.92133  0.57472  0.09553  Biso   1.000  C
  C111     1.0000 0.07724  0.66914  0.13134  Biso   1.000  C
  C112     1.0000 0.98568  0.37464  0.08505  Biso   1.000  C
  H51      1.0000 0.99420  0.33020  0.08050  Biso   1.000  H
  C113     1.0000 0.04923  0.32720  0.21400  Biso   1.000  C
  H52      1.0000 0.03160  0.34180  0.24460  Biso   1.000  H
  C114     1.0000 0.88344  0.41696  0.13520  Biso   1.000  C
  H53      1.0000 0.90220  0.40320  0.17590  Biso   1.000  H
  C115     1.0000 0.82881  0.45501  0.01590  Biso   1.000  C
  H54      1.0000 0.81010  0.46810  0.97470  Biso   1.000  H
  C116     1.0000 0.04652  0.77891  0.09750  Biso   1.000  C
  H55      1.0000 0.06560  0.80690  0.09110  Biso   1.000  H
  C117     1.0000 0.89170  0.61428  0.10435  Biso   1.000  C
  H56      1.0000 0.86910  0.59780  0.10600  Biso   1.000  H
  C118     1.0000 0.90183  0.67958  0.10988  Biso   1.000  C
  H57      1.0000 0.88770  0.71760  0.11600  Biso   1.000  H
  C119     1.0000 0.09854  0.49375  0.16965  Biso   1.000  C
  H58      1.0000 0.11300  0.45600  0.18450  Biso   1.000  H
  C120     1.0000 0.10812  0.55873  0.16870  Biso   1.000  C
  H59      1.0000 0.13090  0.57540  0.18300  Biso   1.000  H
  C121     1.0000 0.94103  0.80525  0.11430  Biso   1.000  C
  C122     1.0000 0.01346  0.79862  0.09230  Biso   1.000  C
  H60      1.0000 0.00500  0.84320  0.08260  Biso   1.000  H
  C123     1.0000 0.88800  0.46806  0.07911  Biso   1.000  C
  C124     1.0000 0.94903  0.84175  0.18990  Biso   1.000  C
  H61      1.0000 0.96550  0.82420  0.23370  Biso   1.000  H
  C125     1.0000 0.11940  0.75623  0.19750  Biso   1.000  C
  H62      1.0000 0.10290  0.77060  0.23160  Biso   1.000  H
  C126     1.0000 0.11139  0.70379  0.13890  Biso   1.000  C
  C127     1.0000 0.86037  0.48656  0.01820  Biso   1.000  C
  H63      1.0000 0.86320  0.52080  0.97840  Biso   1.000  H
  C128     1.0000 0.17547  0.76670  0.15530  Biso   1.000  C
  C129     1.0000 0.13553  0.68430  0.08920  Biso   1.000  C
  H64      1.0000 0.13030  0.64940  0.04880  Biso   1.000  H
  C130     1.0000 0.16762  0.71570  0.09800  Biso   1.000  C
  H65      1.0000 0.18420  0.70170  0.06390  Biso   1.000  H
  C131     1.0000 0.10087  0.28423  0.12670  Biso   1.000  C
  H66      1.0000 0.11870  0.26980  0.09680  Biso   1.000  H
  C132     1.0000 0.06500  0.26600  0.23300  Biso   1.000  C
  H67      1.0000 0.05820  0.23890  0.27650  Biso   1.000  H
  C133     1.0000 0.09119  0.24309  0.18860  Biso   1.000  C
  C134     1.0000 0.85168  0.38558  0.13250  Biso   1.000  C
  H68      1.0000 0.84880  0.35090  0.17170  Biso   1.000  H
  C135     1.0000 0.82421  0.40489  0.07260  Biso   1.000  C
  C136     1.0000 0.91750  0.83196  0.05120  Biso   1.000  C
  H69      1.0000 0.91170  0.80790  0.99980  Biso   1.000  H
  C137     1.0000 0.15108  0.78664  0.20540  Biso   1.000  C
  H70      1.0000 0.15650  0.82180  0.24540  Biso   1.000  H
  C138     1.0000 0.10689  0.17448  0.20510  Biso   1.000  C
  C139     1.0000 0.93350  0.90193  0.20130  Biso   1.000  C
  H71      1.0000 0.93860  0.92500  0.25360  Biso   1.000  H
  C140     1.0000 0.91080  0.92896  0.13830  Biso   1.000  C
  C141     1.0000 0.78939  0.37190  0.07030  Biso   1.000  C
  C142     1.0000 0.90215  0.89383  0.06190  Biso   1.000  C
  H72      1.0000 0.88600  0.91220  0.01800  Biso   1.000  H
  C143     1.0000 0.20966  0.80180  0.16320  Biso   1.000  C
  C144     1.0000 0.89495  0.99650  0.14730  Biso   1.000  C
  O22      1.0000 0.87739  0.02353  0.09040  Biso   1.000  O
  O23      1.0000 0.23076  0.77360  0.12020  Biso   1.000  O
  O24      1.0000 0.90198  0.02376  0.22050  Biso   1.000  O
  Fe4      1.0000 0.00013  0.58654  0.35983  Biso   1.000  Fe
  N13      1.0000 0.01543  0.48892  0.39559  Biso   1.000  N
  N14      1.0000 0.98530  0.68440  0.38532  Biso   1.000  N
  N15      1.0000 0.95037  0.55686  0.37116  Biso   1.000  N
  N16      1.0000 0.05055  0.61620  0.40290  Biso   1.000  N
  O25      1.0000 0.90066  0.14509  0.22860  Biso   1.000  O
  O26      1.0000 0.78442  0.85260  0.29430  Biso   1.000  O
  O27      1.0000 0.21172  0.32390  0.37860  Biso   1.000  O
  O28      1.0000 0.87643  0.14842  0.34470  Biso   1.000  O
  C145     1.0000 0.04852  0.46534  0.41454  Biso   1.000  C
  C146     1.0000 0.95231  0.70756  0.38532  Biso   1.000  C
  O29      1.0000 0.23566  0.39380  0.47900  Biso   1.000  O
  C147     1.0000 0.95818  0.43398  0.36754  Biso   1.000  C
  C148     1.0000 0.99437  0.43370  0.39233  Biso   1.000  C
  C149     1.0000 0.93839  0.49266  0.35660  Biso   1.000  C
  C150     1.0000 0.00659  0.73923  0.39592  Biso   1.000  C
  C151     1.0000 0.06219  0.68043  0.39527  Biso   1.000  C
  C152     1.0000 0.04763  0.39366  0.42862  Biso   1.000  C
  H73      1.0000 0.06690  0.36510  0.44450  Biso   1.000  H
  C153     1.0000 0.07834  0.50441  0.41421  Biso   1.000  C
  C154     1.0000 0.92212  0.59857  0.35780  Biso   1.000  C
  C155     1.0000 0.91476  0.34593  0.39275  Biso   1.000  C
  H74      1.0000 0.90750  0.37330  0.43550  Biso   1.000  H
  C156     1.0000 0.04197  0.73904  0.39433  Biso   1.000  C
  C157     1.0000 0.94116  0.36814  0.34981  Biso   1.000  C
  C158     1.0000 0.07867  0.57472  0.40447  Biso   1.000  C
  C159     1.0000 0.92276  0.66914  0.36866  Biso   1.000  C
  C160     1.0000 0.01432  0.37464  0.41495  Biso   1.000  C
  H75      1.0000 0.00580  0.33020  0.41950  Biso   1.000  H
  C161     1.0000 0.95077  0.32720  0.28600  Biso   1.000  C
  H76      1.0000 0.96840  0.34180  0.25540  Biso   1.000  H
  C162     1.0000 0.11656  0.41696  0.36480  Biso   1.000  C
  H77      1.0000 0.09780  0.40320  0.32410  Biso   1.000  H
  C163     1.0000 0.17119  0.45501  0.48410  Biso   1.000  C
  H78      1.0000 0.18990  0.46810  0.52530  Biso   1.000  H
  C164     1.0000 0.95348  0.77891  0.40250  Biso   1.000  C
  H79      1.0000 0.93440  0.80690  0.40890  Biso   1.000  H
  C165     1.0000 0.10830  0.61428  0.39565  Biso   1.000  C
  H80      1.0000 0.13090  0.59780  0.39400  Biso   1.000  H
  C166     1.0000 0.09817  0.67958  0.39012  Biso   1.000  C
  H81      1.0000 0.11230  0.71760  0.38400  Biso   1.000  H
  C167     1.0000 0.90146  0.49375  0.33035  Biso   1.000  C
  H82      1.0000 0.88700  0.45600  0.31550  Biso   1.000  H
  C168     1.0000 0.89188  0.55873  0.33130  Biso   1.000  C
  H83      1.0000 0.86910  0.57540  0.31700  Biso   1.000  H
  C169     1.0000 0.05897  0.80525  0.38570  Biso   1.000  C
  C170     1.0000 0.98654  0.79862  0.40770  Biso   1.000  C
  H84      1.0000 0.99500  0.84320  0.41740  Biso   1.000  H
  C171     1.0000 0.11200  0.46806  0.42089  Biso   1.000  C
  C172     1.0000 0.05097  0.84175  0.31010  Biso   1.000  C
  H85      1.0000 0.03450  0.82420  0.26630  Biso   1.000  H
  C173     1.0000 0.88060  0.75623  0.30250  Biso   1.000  C
  H86      1.0000 0.89710  0.77060  0.26840  Biso   1.000  H
  C174     1.0000 0.88861  0.70379  0.36110  Biso   1.000  C
  C175     1.0000 0.13963  0.48656  0.48180  Biso   1.000  C
  H87      1.0000 0.13680  0.52080  0.52160  Biso   1.000  H
  C176     1.0000 0.82453  0.76670  0.34470  Biso   1.000  C
  C177     1.0000 0.86447  0.68430  0.41080  Biso   1.000  C
  H88      1.0000 0.86970  0.64940  0.45120  Biso   1.000  H
  C178     1.0000 0.83238  0.71570  0.40200  Biso   1.000  C
  H89      1.0000 0.81580  0.70170  0.43610  Biso   1.000  H
  C179     1.0000 0.89913  0.28423  0.37330  Biso   1.000  C
  H90      1.0000 0.88130  0.26980  0.40320  Biso   1.000  H
  C180     1.0000 0.93500  0.26600  0.26700  Biso   1.000  C
  H91      1.0000 0.94180  0.23890  0.22350  Biso   1.000  H
  C181     1.0000 0.90881  0.24309  0.31140  Biso   1.000  C
  C182     1.0000 0.14832  0.38558  0.36750  Biso   1.000  C
  H92      1.0000 0.15120  0.35090  0.32830  Biso   1.000  H
  C183     1.0000 0.17579  0.40489  0.42740  Biso   1.000  C
  C184     1.0000 0.08250  0.83196  0.44880  Biso   1.000  C
  H93      1.0000 0.08830  0.80790  0.50020  Biso   1.000  H
  C185     1.0000 0.84892  0.78664  0.29460  Biso   1.000  C
  H94      1.0000 0.84350  0.82180  0.25460  Biso   1.000  H
  C186     1.0000 0.89311  0.17448  0.29490  Biso   1.000  C
  C187     1.0000 0.06650  0.90193  0.29870  Biso   1.000  C
  H95      1.0000 0.06140  0.92500  0.24640  Biso   1.000  H
  C188     1.0000 0.08920  0.92896  0.36170  Biso   1.000  C
  C189     1.0000 0.21061  0.37190  0.42970  Biso   1.000  C
  C190     1.0000 0.09785  0.89383  0.43810  Biso   1.000  C
  H96      1.0000 0.11400  0.91220  0.48200  Biso   1.000  H
  C191     1.0000 0.79034  0.80180  0.33680  Biso   1.000  C
  C192     1.0000 0.10505  0.99650  0.35270  Biso   1.000  C
  O30      1.0000 0.12261  0.02353  0.40960  Biso   1.000  O
  O31      1.0000 0.76924  0.77360  0.37980  Biso   1.000  O
  O32      1.0000 0.09802  0.02376  0.27950  Biso   1.000  O
  Fe5      1.0000 0.50013  0.91346  0.85983  Biso   1.000  Fe
  N17      1.0000 0.51543  0.01108  0.89559  Biso   1.000  N
  N18      1.0000 0.48530  0.81560  0.88532  Biso   1.000  N
  N19      1.0000 0.45037  0.94314  0.87116  Biso   1.000  N
  N20      1.0000 0.55055  0.88380  0.90290  Biso   1.000  N
  O33      1.0000 0.40066  0.35491  0.72860  Biso   1.000  O
  O34      1.0000 0.28442  0.64740  0.79430  Biso   1.000  O
  O35      1.0000 0.71172  0.17610  0.87860  Biso   1.000  O
  O36      1.0000 0.37643  0.35158  0.84470  Biso   1.000  O
  C193     1.0000 0.54852  0.03466  0.91454  Biso   1.000  C
  C194     1.0000 0.45231  0.79244  0.88532  Biso   1.000  C
  O37      1.0000 0.73566  0.10620  0.97900  Biso   1.000  O
  C195     1.0000 0.45818  0.06602  0.86754  Biso   1.000  C
  C196     1.0000 0.49437  0.06630  0.89233  Biso   1.000  C
  C197     1.0000 0.43839  0.00734  0.85660  Biso   1.000  C
  C198     1.0000 0.50659  0.76077  0.89592  Biso   1.000  C
  C199     1.0000 0.56219  0.81957  0.89527  Biso   1.000  C
  C200     1.0000 0.54763  0.10634  0.92862  Biso   1.000  C
  H97      1.0000 0.56690  0.13490  0.94450  Biso   1.000  H
  C201     1.0000 0.57834  0.99559  0.91421  Biso   1.000  C
  C202     1.0000 0.42212  0.90143  0.85780  Biso   1.000  C
  C203     1.0000 0.41476  0.15407  0.89275  Biso   1.000  C
  H98      1.0000 0.40750  0.12670  0.93550  Biso   1.000  H
  C204     1.0000 0.54197  0.76096  0.89433  Biso   1.000  C
  C205     1.0000 0.44116  0.13186  0.84981  Biso   1.000  C
  C206     1.0000 0.57867  0.92528  0.90447  Biso   1.000  C
  C207     1.0000 0.42276  0.83086  0.86866  Biso   1.000  C
  C208     1.0000 0.51432  0.12536  0.91495  Biso   1.000  C
  H99      1.0000 0.50580  0.16980  0.91950  Biso   1.000  H
  C209     1.0000 0.45077  0.17280  0.78600  Biso   1.000  C
  H100     1.0000 0.46840  0.15820  0.75540  Biso   1.000  H
  C210     1.0000 0.61656  0.08304  0.86480  Biso   1.000  C
  H101     1.0000 0.59780  0.09680  0.82410  Biso   1.000  H
  C211     1.0000 0.67119  0.04499  0.98410  Biso   1.000  C
  H102     1.0000 0.68990  0.03190  0.02530  Biso   1.000  H
  C212     1.0000 0.45348  0.72109  0.90250  Biso   1.000  C
  H103     1.0000 0.43440  0.69310  0.90890  Biso   1.000  H
  C213     1.0000 0.60830  0.88572  0.89565  Biso   1.000  C
  H104     1.0000 0.63090  0.90220  0.89400  Biso   1.000  H
  C214     1.0000 0.59817  0.82042  0.89012  Biso   1.000  C
  H105     1.0000 0.61230  0.78240  0.88400  Biso   1.000  H
  C215     1.0000 0.40146  0.00625  0.83035  Biso   1.000  C
  H106     1.0000 0.38700  0.04400  0.81550  Biso   1.000  H
  C216     1.0000 0.39188  0.94127  0.83130  Biso   1.000  C
  H107     1.0000 0.36910  0.92460  0.81700  Biso   1.000  H
  C217     1.0000 0.55897  0.69475  0.88570  Biso   1.000  C
  C218     1.0000 0.48654  0.70138  0.90770  Biso   1.000  C
  H108     1.0000 0.49500  0.65680  0.91740  Biso   1.000  H
  C219     1.0000 0.61200  0.03194  0.92089  Biso   1.000  C
  C220     1.0000 0.55097  0.65825  0.81010  Biso   1.000  C
  H109     1.0000 0.53450  0.67580  0.76630  Biso   1.000  H
  C221     1.0000 0.38060  0.74377  0.80250  Biso   1.000  C
  H110     1.0000 0.39710  0.72940  0.76840  Biso   1.000  H
  C222     1.0000 0.38861  0.79621  0.86110  Biso   1.000  C
  C223     1.0000 0.63963  0.01344  0.98180  Biso   1.000  C
  H111     1.0000 0.63680  0.97920  0.02160  Biso   1.000  H
  C224     1.0000 0.32453  0.73330  0.84470  Biso   1.000  C
  C225     1.0000 0.36447  0.81570  0.91080  Biso   1.000  C
  H112     1.0000 0.36970  0.85060  0.95120  Biso   1.000  H
  C226     1.0000 0.33238  0.78430  0.90200  Biso   1.000  C
  H113     1.0000 0.31580  0.79830  0.93610  Biso   1.000  H
  C227     1.0000 0.39913  0.21577  0.87330  Biso   1.000  C
  H114     1.0000 0.38130  0.23020  0.90320  Biso   1.000  H
  C228     1.0000 0.43500  0.23400  0.76700  Biso   1.000  C
  H115     1.0000 0.44180  0.26110  0.72350  Biso   1.000  H
  C229     1.0000 0.40881  0.25691  0.81140  Biso   1.000  C
  C230     1.0000 0.64832  0.11442  0.86750  Biso   1.000  C
  H116     1.0000 0.65120  0.14910  0.82830  Biso   1.000  H
  C231     1.0000 0.67579  0.09511  0.92740  Biso   1.000  C
  C232     1.0000 0.58250  0.66804  0.94880  Biso   1.000  C
  H117     1.0000 0.58830  0.69210  0.00020  Biso   1.000  H
  C233     1.0000 0.34892  0.71336  0.79460  Biso   1.000  C
  H118     1.0000 0.34350  0.67820  0.75460  Biso   1.000  H
  C234     1.0000 0.39311  0.32552  0.79490  Biso   1.000  C
  C235     1.0000 0.56650  0.59807  0.79870  Biso   1.000  C
  H119     1.0000 0.56140  0.57500  0.74640  Biso   1.000  H
  C236     1.0000 0.58920  0.57104  0.86170  Biso   1.000  C
  C237     1.0000 0.71061  0.12810  0.92970  Biso   1.000  C
  C238     1.0000 0.59785  0.60617  0.93810  Biso   1.000  C
  H120     1.0000 0.61400  0.58780  0.98200  Biso   1.000  H
  C239     1.0000 0.29034  0.69820  0.83680  Biso   1.000  C
  C240     1.0000 0.60505  0.50350  0.85270  Biso   1.000  C
  O38      1.0000 0.62261  0.47647  0.90960  Biso   1.000  O
  O39      1.0000 0.26924  0.72640  0.87980  Biso   1.000  O
  O40      1.0000 0.59802  0.47624  0.77950  Biso   1.000  O
  Fe6      1.0000 0.49987  0.91346  0.64017  Biso   1.000  Fe
  N21      1.0000 0.48457  0.01108  0.60441  Biso   1.000  N
  N22      1.0000 0.51470  0.81560  0.61468  Biso   1.000  N
  N23      1.0000 0.54963  0.94314  0.62884  Biso   1.000  N
  N24      1.0000 0.44945  0.88380  0.59710  Biso   1.000  N
  O41      1.0000 0.59934  0.35491  0.77140  Biso   1.000  O
  O42      1.0000 0.71558  0.64740  0.70570  Biso   1.000  O
  O43      1.0000 0.28828  0.17610  0.62140  Biso   1.000  O
  O44      1.0000 0.62357  0.35158  0.65530  Biso   1.000  O
  C241     1.0000 0.45148  0.03466  0.58546  Biso   1.000  C
  C242     1.0000 0.54769  0.79244  0.61468  Biso   1.000  C
  O45      1.0000 0.26434  0.10620  0.52100  Biso   1.000  O
  C243     1.0000 0.54182  0.06602  0.63246  Biso   1.000  C
  C244     1.0000 0.50563  0.06630  0.60767  Biso   1.000  C
  C245     1.0000 0.56161  0.00734  0.64340  Biso   1.000  C
  C246     1.0000 0.49341  0.76077  0.60408  Biso   1.000  C
  C247     1.0000 0.43781  0.81957  0.60473  Biso   1.000  C
  C248     1.0000 0.45237  0.10634  0.57138  Biso   1.000  C
  H121     1.0000 0.43310  0.13490  0.55550  Biso   1.000  H
  C249     1.0000 0.42166  0.99559  0.58579  Biso   1.000  C
  C250     1.0000 0.57788  0.90143  0.64220  Biso   1.000  C
  C251     1.0000 0.58524  0.15407  0.60725  Biso   1.000  C
  H122     1.0000 0.59250  0.12670  0.56450  Biso   1.000  H
  C252     1.0000 0.45803  0.76096  0.60567  Biso   1.000  C
  C253     1.0000 0.55884  0.13186  0.65019  Biso   1.000  C
  C254     1.0000 0.42133  0.92528  0.59553  Biso   1.000  C
  C255     1.0000 0.57724  0.83086  0.63134  Biso   1.000  C
  C256     1.0000 0.48568  0.12536  0.58505  Biso   1.000  C
  H123     1.0000 0.49420  0.16980  0.58050  Biso   1.000  H
  C257     1.0000 0.54923  0.17280  0.71400  Biso   1.000  C
  H124     1.0000 0.53160  0.15820  0.74460  Biso   1.000  H
  C258     1.0000 0.38344  0.08304  0.63520  Biso   1.000  C
  H125     1.0000 0.40220  0.09680  0.67590  Biso   1.000  H
  C259     1.0000 0.32881  0.04499  0.51590  Biso   1.000  C
  H126     1.0000 0.31010  0.03190  0.47470  Biso   1.000  H
  C260     1.0000 0.54652  0.72109  0.59750  Biso   1.000  C
  H127     1.0000 0.56560  0.69310  0.59110  Biso   1.000  H
  C261     1.0000 0.39170  0.88572  0.60435  Biso   1.000  C
  H128     1.0000 0.36910  0.90220  0.60600  Biso   1.000  H
  C262     1.0000 0.40183  0.82042  0.60988  Biso   1.000  C
  H129     1.0000 0.38770  0.78240  0.61600  Biso   1.000  H
  C263     1.0000 0.59854  0.00625  0.66965  Biso   1.000  C
  H130     1.0000 0.61300  0.04400  0.68450  Biso   1.000  H
  C264     1.0000 0.60812  0.94127  0.66870  Biso   1.000  C
  H131     1.0000 0.63090  0.92460  0.68300  Biso   1.000  H
  C265     1.0000 0.44103  0.69475  0.61430  Biso   1.000  C
  C266     1.0000 0.51346  0.70138  0.59230  Biso   1.000  C
  H132     1.0000 0.50500  0.65680  0.58260  Biso   1.000  H
  C267     1.0000 0.38800  0.03194  0.57911  Biso   1.000  C
  C268     1.0000 0.44903  0.65825  0.68990  Biso   1.000  C
  H133     1.0000 0.46550  0.67580  0.73370  Biso   1.000  H
  C269     1.0000 0.61940  0.74377  0.69750  Biso   1.000  C
  H134     1.0000 0.60290  0.72940  0.73160  Biso   1.000  H
  C270     1.0000 0.61139  0.79621  0.63890  Biso   1.000  C
  C271     1.0000 0.36037  0.01344  0.51820  Biso   1.000  C
  H135     1.0000 0.36320  0.97920  0.47840  Biso   1.000  H
  C272     1.0000 0.67547  0.73330  0.65530  Biso   1.000  C
  C273     1.0000 0.63553  0.81570  0.58920  Biso   1.000  C
  H136     1.0000 0.63030  0.85060  0.54880  Biso   1.000  H
  C274     1.0000 0.66762  0.78430  0.59800  Biso   1.000  C
  H137     1.0000 0.68420  0.79830  0.56390  Biso   1.000  H
  C275     1.0000 0.60087  0.21577  0.62670  Biso   1.000  C
  H138     1.0000 0.61870  0.23020  0.59680  Biso   1.000  H
  C276     1.0000 0.56500  0.23400  0.73300  Biso   1.000  C
  H139     1.0000 0.55820  0.26110  0.77650  Biso   1.000  H
  C277     1.0000 0.59119  0.25691  0.68860  Biso   1.000  C
  C278     1.0000 0.35168  0.11442  0.63250  Biso   1.000  C
  H140     1.0000 0.34880  0.14910  0.67170  Biso   1.000  H
  C279     1.0000 0.32421  0.09511  0.57260  Biso   1.000  C
  C280     1.0000 0.41750  0.66804  0.55120  Biso   1.000  C
  H141     1.0000 0.41170  0.69210  0.49980  Biso   1.000  H
  C281     1.0000 0.65108  0.71336  0.70540  Biso   1.000  C
  H142     1.0000 0.65650  0.67820  0.74540  Biso   1.000  H
  C282     1.0000 0.60689  0.32552  0.70510  Biso   1.000  C
  C283     1.0000 0.43350  0.59807  0.70130  Biso   1.000  C
  H143     1.0000 0.43860  0.57500  0.75360  Biso   1.000  H
  C284     1.0000 0.41080  0.57104  0.63830  Biso   1.000  C
  C285     1.0000 0.28939  0.12810  0.57030  Biso   1.000  C
  C286     1.0000 0.40215  0.60617  0.56190  Biso   1.000  C
  H144     1.0000 0.38600  0.58780  0.51800  Biso   1.000  H
  C287     1.0000 0.70966  0.69820  0.66320  Biso   1.000  C
  C288     1.0000 0.39495  0.50350  0.64730  Biso   1.000  C
  O46      1.0000 0.37739  0.47647  0.59040  Biso   1.000  O
  O47      1.0000 0.73076  0.72640  0.62020  Biso   1.000  O
  O48      1.0000 0.40198  0.47624  0.72050  Biso   1.000  O
  Fe7      1.0000 0.00013  0.41346  0.85983  Biso   1.000  Fe
  N25      1.0000 0.01543  0.51108  0.89559  Biso   1.000  N
  N26      1.0000 0.98530  0.31560  0.88532  Biso   1.000  N
  N27      1.0000 0.95037  0.44314  0.87116  Biso   1.000  N
  N28      1.0000 0.05055  0.38380  0.90290  Biso   1.000  N
  O49      1.0000 0.90066  0.85491  0.72860  Biso   1.000  O
  O50      1.0000 0.78442  0.14740  0.79430  Biso   1.000  O
  O51      1.0000 0.21172  0.67610  0.87860  Biso   1.000  O
  O52      1.0000 0.87643  0.85158  0.84470  Biso   1.000  O
  C289     1.0000 0.04852  0.53466  0.91454  Biso   1.000  C
  C290     1.0000 0.95231  0.29244  0.88532  Biso   1.000  C
  O53      1.0000 0.23566  0.60620  0.97900  Biso   1.000  O
  C291     1.0000 0.95818  0.56602  0.86754  Biso   1.000  C
  C292     1.0000 0.99437  0.56630  0.89233  Biso   1.000  C
  C293     1.0000 0.93839  0.50734  0.85660  Biso   1.000  C
  C294     1.0000 0.00659  0.26077  0.89592  Biso   1.000  C
  C295     1.0000 0.06219  0.31957  0.89527  Biso   1.000  C
  C296     1.0000 0.04763  0.60634  0.92862  Biso   1.000  C
  H145     1.0000 0.06690  0.63490  0.94450  Biso   1.000  H
  C297     1.0000 0.07834  0.49559  0.91421  Biso   1.000  C
  C298     1.0000 0.92212  0.40143  0.85780  Biso   1.000  C
  C299     1.0000 0.91476  0.65407  0.89275  Biso   1.000  C
  H146     1.0000 0.90750  0.62670  0.93550  Biso   1.000  H
  C300     1.0000 0.04197  0.26096  0.89433  Biso   1.000  C
  C301     1.0000 0.94116  0.63186  0.84981  Biso   1.000  C
  C302     1.0000 0.07867  0.42528  0.90447  Biso   1.000  C
  C303     1.0000 0.92276  0.33086  0.86866  Biso   1.000  C
  C304     1.0000 0.01432  0.62536  0.91495  Biso   1.000  C
  H147     1.0000 0.00580  0.66980  0.91950  Biso   1.000  H
  C305     1.0000 0.95077  0.67280  0.78600  Biso   1.000  C
  H148     1.0000 0.96840  0.65820  0.75540  Biso   1.000  H
  C306     1.0000 0.11656  0.58304  0.86480  Biso   1.000  C
  H149     1.0000 0.09780  0.59680  0.82410  Biso   1.000  H
  C307     1.0000 0.17119  0.54499  0.98410  Biso   1.000  C
  H150     1.0000 0.18990  0.53190  0.02530  Biso   1.000  H
  C308     1.0000 0.95348  0.22109  0.90250  Biso   1.000  C
  H151     1.0000 0.93440  0.19310  0.90890  Biso   1.000  H
  C309     1.0000 0.10830  0.38572  0.89565  Biso   1.000  C
  H152     1.0000 0.13090  0.40220  0.89400  Biso   1.000  H
  C310     1.0000 0.09817  0.32042  0.89012  Biso   1.000  C
  H153     1.0000 0.11230  0.28240  0.88400  Biso   1.000  H
  C311     1.0000 0.90146  0.50625  0.83035  Biso   1.000  C
  H154     1.0000 0.88700  0.54400  0.81550  Biso   1.000  H
  C312     1.0000 0.89188  0.44127  0.83130  Biso   1.000  C
  H155     1.0000 0.86910  0.42460  0.81700  Biso   1.000  H
  C313     1.0000 0.05897  0.19475  0.88570  Biso   1.000  C
  C314     1.0000 0.98654  0.20138  0.90770  Biso   1.000  C
  H156     1.0000 0.99500  0.15680  0.91740  Biso   1.000  H
  C315     1.0000 0.11200  0.53194  0.92089  Biso   1.000  C
  C316     1.0000 0.05097  0.15825  0.81010  Biso   1.000  C
  H157     1.0000 0.03450  0.17580  0.76630  Biso   1.000  H
  C317     1.0000 0.88060  0.24377  0.80250  Biso   1.000  C
  H158     1.0000 0.89710  0.22940  0.76840  Biso   1.000  H
  C318     1.0000 0.88861  0.29621  0.86110  Biso   1.000  C
  C319     1.0000 0.13963  0.51344  0.98180  Biso   1.000  C
  H159     1.0000 0.13680  0.47920  0.02160  Biso   1.000  H
  C320     1.0000 0.82453  0.23330  0.84470  Biso   1.000  C
  C321     1.0000 0.86447  0.31570  0.91080  Biso   1.000  C
  H160     1.0000 0.86970  0.35060  0.95120  Biso   1.000  H
  C322     1.0000 0.83238  0.28430  0.90200  Biso   1.000  C
  H161     1.0000 0.81580  0.29830  0.93610  Biso   1.000  H
  C323     1.0000 0.89913  0.71577  0.87330  Biso   1.000  C
  H162     1.0000 0.88130  0.73020  0.90320  Biso   1.000  H
  C324     1.0000 0.93500  0.73400  0.76700  Biso   1.000  C
  H163     1.0000 0.94180  0.76110  0.72350  Biso   1.000  H
  C325     1.0000 0.90881  0.75691  0.81140  Biso   1.000  C
  C326     1.0000 0.14832  0.61442  0.86750  Biso   1.000  C
  H164     1.0000 0.15120  0.64910  0.82830  Biso   1.000  H
  C327     1.0000 0.17579  0.59511  0.92740  Biso   1.000  C
  C328     1.0000 0.08250  0.16804  0.94880  Biso   1.000  C
  H165     1.0000 0.08830  0.19210  0.00020  Biso   1.000  H
  C329     1.0000 0.84892  0.21336  0.79460  Biso   1.000  C
  H166     1.0000 0.84350  0.17820  0.75460  Biso   1.000  H
  C330     1.0000 0.89311  0.82552  0.79490  Biso   1.000  C
  C331     1.0000 0.06650  0.09807  0.79870  Biso   1.000  C
  H167     1.0000 0.06140  0.07500  0.74640  Biso   1.000  H
  C332     1.0000 0.08920  0.07104  0.86170  Biso   1.000  C
  C333     1.0000 0.21061  0.62810  0.92970  Biso   1.000  C
  C334     1.0000 0.09785  0.10617  0.93810  Biso   1.000  C
  H168     1.0000 0.11400  0.08780  0.98200  Biso   1.000  H
  C335     1.0000 0.79034  0.19820  0.83680  Biso   1.000  C
  C336     1.0000 0.10505  0.00350  0.85270  Biso   1.000  C
  O54      1.0000 0.12261  0.97647  0.90960  Biso   1.000  O
  O55      1.0000 0.76924  0.22640  0.87980  Biso   1.000  O
  O56      1.0000 0.09802  0.97624  0.77950  Biso   1.000  O
  Fe8      1.0000 0.99987  0.41346  0.64017  Biso   1.000  Fe
  N29      1.0000 0.98457  0.51108  0.60441  Biso   1.000  N
  N30      1.0000 0.01470  0.31560  0.61468  Biso   1.000  N
  N31      1.0000 0.04963  0.44314  0.62884  Biso   1.000  N
  N32      1.0000 0.94945  0.38380  0.59710  Biso   1.000  N
  O57      1.0000 0.09934  0.85491  0.77140  Biso   1.000  O
  O58      1.0000 0.21558  0.14740  0.70570  Biso   1.000  O
  O59      1.0000 0.78828  0.67610  0.62140  Biso   1.000  O
  O60      1.0000 0.12357  0.85158  0.65530  Biso   1.000  O
  C337     1.0000 0.95148  0.53466  0.58546  Biso   1.000  C
  C338     1.0000 0.04769  0.29244  0.61468  Biso   1.000  C
  O61      1.0000 0.76434  0.60620  0.52100  Biso   1.000  O
  C339     1.0000 0.04182  0.56602  0.63246  Biso   1.000  C
  C340     1.0000 0.00563  0.56630  0.60767  Biso   1.000  C
  C341     1.0000 0.06161  0.50734  0.64340  Biso   1.000  C
  C342     1.0000 0.99341  0.26077  0.60408  Biso   1.000  C
  C343     1.0000 0.93781  0.31957  0.60473  Biso   1.000  C
  C344     1.0000 0.95237  0.60634  0.57138  Biso   1.000  C
  H169     1.0000 0.93310  0.63490  0.55550  Biso   1.000  H
  C345     1.0000 0.92166  0.49559  0.58579  Biso   1.000  C
  C346     1.0000 0.07788  0.40143  0.64220  Biso   1.000  C
  C347     1.0000 0.08524  0.65407  0.60725  Biso   1.000  C
  H170     1.0000 0.09250  0.62670  0.56450  Biso   1.000  H
  C348     1.0000 0.95803  0.26096  0.60567  Biso   1.000  C
  C349     1.0000 0.05884  0.63186  0.65019  Biso   1.000  C
  C350     1.0000 0.92133  0.42528  0.59553  Biso   1.000  C
  C351     1.0000 0.07724  0.33086  0.63134  Biso   1.000  C
  C352     1.0000 0.98568  0.62536  0.58505  Biso   1.000  C
  H171     1.0000 0.99420  0.66980  0.58050  Biso   1.000  H
  C353     1.0000 0.04923  0.67280  0.71400  Biso   1.000  C
  H172     1.0000 0.03160  0.65820  0.74460  Biso   1.000  H
  C354     1.0000 0.88344  0.58304  0.63520  Biso   1.000  C
  H173     1.0000 0.90220  0.59680  0.67590  Biso   1.000  H
  C355     1.0000 0.82881  0.54499  0.51590  Biso   1.000  C
  H174     1.0000 0.81010  0.53190  0.47470  Biso   1.000  H
  C356     1.0000 0.04652  0.22109  0.59750  Biso   1.000  C
  H175     1.0000 0.06560  0.19310  0.59110  Biso   1.000  H
  C357     1.0000 0.89170  0.38572  0.60435  Biso   1.000  C
  H176     1.0000 0.86910  0.40220  0.60600  Biso   1.000  H
  C358     1.0000 0.90183  0.32042  0.60988  Biso   1.000  C
  H177     1.0000 0.88770  0.28240  0.61600  Biso   1.000  H
  C359     1.0000 0.09854  0.50625  0.66965  Biso   1.000  C
  H178     1.0000 0.11300  0.54400  0.68450  Biso   1.000  H
  C360     1.0000 0.10812  0.44127  0.66870  Biso   1.000  C
  H179     1.0000 0.13090  0.42460  0.68300  Biso   1.000  H
  C361     1.0000 0.94103  0.19475  0.61430  Biso   1.000  C
  C362     1.0000 0.01346  0.20138  0.59230  Biso   1.000  C
  H180     1.0000 0.00500  0.15680  0.58260  Biso   1.000  H
  C363     1.0000 0.88800  0.53194  0.57911  Biso   1.000  C
  C364     1.0000 0.94903  0.15825  0.68990  Biso   1.000  C
  H181     1.0000 0.96550  0.17580  0.73370  Biso   1.000  H
  C365     1.0000 0.11940  0.24377  0.69750  Biso   1.000  C
  H182     1.0000 0.10290  0.22940  0.73160  Biso   1.000  H
  C366     1.0000 0.11139  0.29621  0.63890  Biso   1.000  C
  C367     1.0000 0.86037  0.51344  0.51820  Biso   1.000  C
  H183     1.0000 0.86320  0.47920  0.47840  Biso   1.000  H
  C368     1.0000 0.17547  0.23330  0.65530  Biso   1.000  C
  C369     1.0000 0.13553  0.31570  0.58920  Biso   1.000  C
  H184     1.0000 0.13030  0.35060  0.54880  Biso   1.000  H
  C370     1.0000 0.16762  0.28430  0.59800  Biso   1.000  C
  H185     1.0000 0.18420  0.29830  0.56390  Biso   1.000  H
  C371     1.0000 0.10087  0.71577  0.62670  Biso   1.000  C
  H186     1.0000 0.11870  0.73020  0.59680  Biso   1.000  H
  C372     1.0000 0.06500  0.73400  0.73300  Biso   1.000  C
  H187     1.0000 0.05820  0.76110  0.77650  Biso   1.000  H
  C373     1.0000 0.09119  0.75691  0.68860  Biso   1.000  C
  C374     1.0000 0.85168  0.61442  0.63250  Biso   1.000  C
  H188     1.0000 0.84880  0.64910  0.67170  Biso   1.000  H
  C375     1.0000 0.82421  0.59511  0.57260  Biso   1.000  C
  C376     1.0000 0.91750  0.16804  0.55120  Biso   1.000  C
  H189     1.0000 0.91170  0.19210  0.49980  Biso   1.000  H
  C377     1.0000 0.15108  0.21336  0.70540  Biso   1.000  C
  H190     1.0000 0.15650  0.17820  0.74540  Biso   1.000  H
  C378     1.0000 0.10689  0.82552  0.70510  Biso   1.000  C
  C379     1.0000 0.93350  0.09807  0.70130  Biso   1.000  C
  H191     1.0000 0.93860  0.07500  0.75360  Biso   1.000  H
  C380     1.0000 0.91080  0.07104  0.63830  Biso   1.000  C
  C381     1.0000 0.78939  0.62810  0.57030  Biso   1.000  C
  C382     1.0000 0.90215  0.10617  0.56190  Biso   1.000  C
  H192     1.0000 0.88600  0.08780  0.51800  Biso   1.000  H
  C383     1.0000 0.20966  0.19820  0.66320  Biso   1.000  C
  C384     1.0000 0.89495  0.00350  0.64730  Biso   1.000  C
  O62      1.0000 0.87739  0.97647  0.59040  Biso   1.000  O
  O63      1.0000 0.23076  0.22640  0.62020  Biso   1.000  O
  O64      1.0000 0.90198  0.97624  0.72050  Biso   1.000  O
