data_image0
_cell_length_a       18.9563
_cell_length_b       16.2903
_cell_length_c       38.5631
_cell_angle_alpha    90
_cell_angle_beta     101.677
_cell_angle_gamma    90

_symmetry_space_group_name_H-M    "P 1"
_symmetry_int_tables_number       1

loop_
  _symmetry_equiv_pos_as_xyz
  'x, y, z'

loop_
  _atom_site_label
  _atom_site_occupancy
  _atom_site_fract_x
  _atom_site_fract_y
  _atom_site_fract_z
  _atom_site_thermal_displace_type
  _atom_site_B_iso_or_equiv
  _atom_site_type_symbol
  Al1      1.0000 0.23671  0.18907  0.21765  Biso   1.000  Al
  Al2      1.0000 0.28841  0.89828  0.16863  Biso   1.000  Al
  Al3      1.0000 0.39358  0.16521  0.11770  Biso   1.000  Al
  N1       1.0000 0.17392  0.11482  0.24608  Biso   1.000  N
  N2       1.0000 0.34569  0.84380  0.13321  Biso   1.000  N
  N3       1.0000 0.39059  0.29372  0.12309  Biso   1.000  N
  O1       1.0000 0.16034  0.24172  0.19675  Biso   1.000  O
  O2       1.0000 0.29041  0.22545  0.25642  Biso   1.000  O
  O3       1.0000 0.25719  0.08908  0.20095  Biso   1.000  O
  O4       1.0000 0.23808  0.95426  0.19874  Biso   1.000  O
  O5       1.0000 0.20640  0.86568  0.14304  Biso   1.000  O
  O6       1.0000 0.33433  0.84296  0.20469  Biso   1.000  O
  O7       1.0000 0.33003  0.99264  0.15510  Biso   1.000  O
  O8       1.0000 0.39123  0.04980  0.11783  Biso   1.000  O
  O9       1.0000 0.33714  0.16913  0.07638  Biso   1.000  O
  O10      1.0000 0.48619  0.16444  0.11959  Biso   1.000  O
  O11      1.0000 0.35344  0.17042  0.15760  Biso   1.000  O
  O12      1.0000 0.29334  0.24456  0.19032  Biso   1.000  O
  C1       1.0000 0.08965  0.22040  0.18813  Biso   1.000  C
  C2       1.0000 0.04675  0.24690  0.15566  Biso   1.000  C
  C3       1.0000 0.97603  0.21970  0.14777  Biso   1.000  C
  H1       1.0000 0.94740  0.23610  0.12640  Biso   1.000  H
  C4       1.0000 0.94516  0.16950  0.16992  Biso   1.000  C
  C5       1.0000 0.98779  0.14820  0.20224  Biso   1.000  C
  H2       1.0000 0.96840  0.11620  0.21800  Biso   1.000  H
  C6       1.0000 0.05937  0.17390  0.21167  Biso   1.000  C
  C7       1.0000 0.10320  0.15420  0.24767  Biso   1.000  C
  H3       1.0000 0.11200  0.20440  0.26140  Biso   1.000  H
  H4       1.0000 0.07580  0.11760  0.25980  Biso   1.000  H
  C8       1.0000 0.07840  0.30070  0.12945  Biso   1.000  C
  C9       1.0000 0.13030  0.24850  0.11333  Biso   1.000  C
  H5       1.0000 0.10540  0.20130  0.10210  Biso   1.000  H
  H6       1.0000 0.16960  0.23110  0.13170  Biso   1.000  H
  H7       1.0000 0.14860  0.28030  0.09610  Biso   1.000  H
  C10      1.0000 0.11750  0.37650  0.14757  Biso   1.000  C
  H8       1.0000 0.08440  0.40900  0.15760  Biso   1.000  H
  H9       1.0000 0.13570  0.40860  0.13050  Biso   1.000  H
  H10      1.0000 0.15670  0.35930  0.16600  Biso   1.000  H
  C11      1.0000 0.01820  0.33350  0.09952  Biso   1.000  C
  H11      1.0000 0.98540  0.36640  0.10950  Biso   1.000  H
  H12      1.0000 0.99270  0.28820  0.08690  Biso   1.000  H
  H13      1.0000 0.03910  0.36630  0.08350  Biso   1.000  H
  C12      1.0000 0.86685  0.13840  0.15770  Biso   1.000  C
  C13      1.0000 0.86370  0.08180  0.12588  Biso   1.000  C
  H14      1.0000 0.88020  0.11090  0.10740  Biso   1.000  H
  H15      1.0000 0.81500  0.06400  0.11750  Biso   1.000  H
  H16      1.0000 0.89400  0.03490  0.13280  Biso   1.000  H
  C14      1.0000 0.84070  0.09140  0.18659  Biso   1.000  C
  H17      1.0000 0.84240  0.12650  0.20680  Biso   1.000  H
  H18      1.0000 0.87100  0.04450  0.19330  Biso   1.000  H
  H19      1.0000 0.79200  0.07360  0.17800  Biso   1.000  H
  C15      1.0000 0.81690  0.21210  0.14695  Biso   1.000  C
  H20      1.0000 0.83280  0.24250  0.12860  Biso   1.000  H
  H21      1.0000 0.81790  0.24700  0.16710  Biso   1.000  H
  H22      1.0000 0.76860  0.19310  0.13840  Biso   1.000  H
  C16      1.0000 0.27470  0.23820  0.28858  Biso   1.000  C
  C17      1.0000 0.29636  0.31060  0.30743  Biso   1.000  C
  C18      1.0000 0.27680  0.32060  0.33993  Biso   1.000  C
  H23      1.0000 0.29050  0.36870  0.35240  Biso   1.000  H
  C19      1.0000 0.23800  0.26310  0.35485  Biso   1.000  C
  C20      1.0000 0.21800  0.19110  0.33565  Biso   1.000  C
  H24      1.0000 0.19200  0.15120  0.34500  Biso   1.000  H
  C21      1.0000 0.23610  0.17800  0.30310  Biso   1.000  C
  C22      1.0000 0.21650  0.09980  0.28260  Biso   1.000  C
  H25      1.0000 0.26030  0.07040  0.28100  Biso   1.000  H
  H26      1.0000 0.18870  0.06520  0.29530  Biso   1.000  H
  C23      1.0000 0.34120  0.37530  0.29213  Biso   1.000  C
  C24      1.0000 0.29480  0.41550  0.25880  Biso   1.000  C
  H27      1.0000 0.25300  0.44020  0.26490  Biso   1.000  H
  H28      1.0000 0.28020  0.37440  0.24100  Biso   1.000  H
  H29      1.0000 0.32260  0.45680  0.24990  Biso   1.000  H
  C25      1.0000 0.40830  0.33530  0.28345  Biso   1.000  C
  H30      1.0000 0.43590  0.37590  0.27400  Biso   1.000  H
  H31      1.0000 0.39430  0.29260  0.26630  Biso   1.000  H
  H32      1.0000 0.43700  0.31240  0.30460  Biso   1.000  H
  C26      1.0000 0.36600  0.44510  0.31874  Biso   1.000  C
  H33      1.0000 0.32460  0.47140  0.32470  Biso   1.000  H
  H34      1.0000 0.39310  0.48460  0.30840  Biso   1.000  H
  H35      1.0000 0.39570  0.42300  0.33980  Biso   1.000  H
  C27      1.0000 0.21550  0.27670  0.39015  Biso   1.000  C
  C28      1.0000 0.24630  0.35980  0.40700  Biso   1.000  C
  H36      1.0000 0.29770  0.36040  0.40930  Biso   1.000  H
  H37      1.0000 0.23480  0.36550  0.43000  Biso   1.000  H
  H38      1.0000 0.22550  0.40440  0.39220  Biso   1.000  H
  C29      1.0000 0.25330  0.21360  0.41706  Biso   1.000  C
  H39      1.0000 0.30450  0.21820  0.41930  Biso   1.000  H
  H40      1.0000 0.23810  0.15940  0.40910  Biso   1.000  H
  H41      1.0000 0.24090  0.22370  0.43960  Biso   1.000  H
  C30      1.0000 0.13800  0.27170  0.38601  Biso   1.000  C
  H42      1.0000 0.12490  0.28050  0.40850  Biso   1.000  H
  H43      1.0000 0.12190  0.21840  0.37720  Biso   1.000  H
  H44      1.0000 0.11570  0.31290  0.36960  Biso   1.000  H
  C31      1.0000 0.16355  0.03611  0.22700  Biso   1.000  C
  H45      1.0000 0.11790  0.03630  0.21020  Biso   1.000  H
  H46      1.0000 0.16290  0.99150  0.24360  Biso   1.000  H
  C32      1.0000 0.22440  0.02414  0.20780  Biso   1.000  C
  C33      1.0000 0.18663  0.84731  0.10866  Biso   1.000  C
  C34      1.0000 0.11813  0.87110  0.08896  Biso   1.000  C
  C35      1.0000 0.10235  0.85240  0.05323  Biso   1.000  C
  H47      1.0000 0.05800  0.86900  0.04010  Biso   1.000  H
  C36      1.0000 0.14910  0.81000  0.03546  Biso   1.000  C
  C37      1.0000 0.21469  0.78540  0.05599  Biso   1.000  C
  H48      1.0000 0.24690  0.75650  0.04540  Biso   1.000  H
  C38      1.0000 0.23323  0.80297  0.09181  Biso   1.000  C
  C39      1.0000 0.30446  0.77434  0.11352  Biso   1.000  C
  H49      1.0000 0.29580  0.73290  0.13020  Biso   1.000  H
  H50      1.0000 0.33280  0.74950  0.09800  Biso   1.000  H
  C40      1.0000 0.06373  0.91660  0.10704  Biso   1.000  C
  C41      1.0000 0.09300  0.99970  0.12162  Biso   1.000  C
  H51      1.0000 0.10390  0.03260  0.10270  Biso   1.000  H
  H52      1.0000 0.13610  0.99170  0.13930  Biso   1.000  H
  H53      1.0000 0.05760  0.02710  0.13200  Biso   1.000  H
  C42      1.0000 0.99240  0.93160  0.08036  Biso   1.000  C
  H54      1.0000 0.97300  0.88000  0.07080  Biso   1.000  H
  H55      1.0000 0.00130  0.96600  0.06150  Biso   1.000  H
  H56      1.0000 0.95860  0.95800  0.09220  Biso   1.000  H
  C43      1.0000 0.04660  0.86480  0.13703  Biso   1.000  C
  H57      1.0000 0.02820  0.81250  0.12790  Biso   1.000  H
  H58      1.0000 0.01120  0.89230  0.14740  Biso   1.000  H
  H59      1.0000 0.08970  0.85680  0.15470  Biso   1.000  H
  C44      1.0000 0.13000  0.79050  0.99591  Biso   1.000  C
  C45      1.0000 0.19010  0.82130  0.97770  Biso   1.000  C
  H60      1.0000 0.17780  0.80890  0.95290  Biso   1.000  H
  H61      1.0000 0.23460  0.79470  0.98800  Biso   1.000  H
  H62      1.0000 0.19550  0.87960  0.98090  Biso   1.000  H
  C46      1.0000 0.06010  0.83280  0.97681  Biso   1.000  C
  H63      1.0000 0.05070  0.81850  0.95220  Biso   1.000  H
  H64      1.0000 0.06530  0.89120  0.97930  Biso   1.000  H
  H65      1.0000 0.02060  0.81490  0.98710  Biso   1.000  H
  C47      1.0000 0.12320  0.69750  0.99062  Biso   1.000  C
  H66      1.0000 0.11120  0.68540  0.96580  Biso   1.000  H
  H67      1.0000 0.08600  0.67700  0.00190  Biso   1.000  H
  H68      1.0000 0.16810  0.67170  0.00090  Biso   1.000  H
  C48      1.0000 0.37502  0.77516  0.20834  Biso   1.000  C
  C49      1.0000 0.37924  0.72380  0.23830  Biso   1.000  C
  C50      1.0000 0.42499  0.65670  0.24128  Biso   1.000  C
  H69      1.0000 0.42860  0.62330  0.26110  Biso   1.000  H
  C51      1.0000 0.46645  0.63580  0.21601  Biso   1.000  C
  C52      1.0000 0.45922  0.68660  0.18640  Biso   1.000  C
  H70      1.0000 0.48440  0.67410  0.16870  Biso   1.000  H
  C53      1.0000 0.41499  0.75566  0.18273  Biso   1.000  C
  C54      1.0000 0.41761  0.81594  0.15338  Biso   1.000  C
  H71      1.0000 0.44470  0.86380  0.16350  Biso   1.000  H
  H72      1.0000 0.44370  0.79100  0.13690  Biso   1.000  H
  C55      1.0000 0.33457  0.74340  0.26651  Biso   1.000  C
  C56      1.0000 0.25408  0.73870  0.24973  Biso   1.000  C
  H73      1.0000 0.24300  0.68510  0.23970  Biso   1.000  H
  H74      1.0000 0.24260  0.77930  0.23140  Biso   1.000  H
  H75      1.0000 0.22630  0.74860  0.26750  Biso   1.000  H
  C57      1.0000 0.35350  0.82820  0.28259  Biso   1.000  C
  H76      1.0000 0.40390  0.83020  0.29300  Biso   1.000  H
  H77      1.0000 0.32600  0.83840  0.30050  Biso   1.000  H
  H78      1.0000 0.34230  0.86910  0.26440  Biso   1.000  H
  C58      1.0000 0.34960  0.68120  0.29735  Biso   1.000  C
  H79      1.0000 0.33830  0.62680  0.28830  Biso   1.000  H
  H80      1.0000 0.32020  0.69430  0.31420  Biso   1.000  H
  H81      1.0000 0.39950  0.68390  0.30870  Biso   1.000  H
  C59      1.0000 0.51653  0.56080  0.22178  Biso   1.000  C
  C60      1.0000 0.56450  0.55670  0.19420  Biso   1.000  C
  H82      1.0000 0.59360  0.60540  0.19580  Biso   1.000  H
  H83      1.0000 0.53480  0.55300  0.17090  Biso   1.000  H
  H84      1.0000 0.59510  0.50930  0.19860  Biso   1.000  H
  C61      1.0000 0.47120  0.48350  0.21870  Biso   1.000  C
  H85      1.0000 0.44020  0.48140  0.19570  Biso   1.000  H
  H86      1.0000 0.44260  0.48380  0.23660  Biso   1.000  H
  H87      1.0000 0.50220  0.43630  0.22180  Biso   1.000  H
  C62      1.0000 0.56650  0.56600  0.25797  Biso   1.000  C
  H88      1.0000 0.59460  0.61530  0.25940  Biso   1.000  H
  H89      1.0000 0.59800  0.51930  0.26130  Biso   1.000  H
  H90      1.0000 0.53840  0.56670  0.27610  Biso   1.000  H
  C63      1.0000 0.35897  0.91018  0.10935  Biso   1.000  C
  H91      1.0000 0.32090  0.91120  0.08830  Biso   1.000  H
  H92      1.0000 0.40440  0.90120  0.10210  Biso   1.000  H
  C64      1.0000 0.36097  0.99048  0.12897  Biso   1.000  C
  C65      1.0000 0.29131  0.22550  0.05839  Biso   1.000  C
  C66      1.0000 0.23140  0.19990  0.03306  Biso   1.000  C
  C67      1.0000 0.18560  0.26210  0.01590  Biso   1.000  C
  H93      1.0000 0.14550  0.24620  0.99910  Biso   1.000  H
  C68      1.0000 0.19580  0.34390  0.02218  Biso   1.000  C
  C69      1.0000 0.25680  0.36670  0.04699  Biso   1.000  C
  H94      1.0000 0.26560  0.42220  0.05170  Biso   1.000  H
  C70      1.0000 0.30490  0.30910  0.06498  Biso   1.000  C
  C71      1.0000 0.37420  0.33690  0.08806  Biso   1.000  C
  H95      1.0000 0.41330  0.32730  0.07580  Biso   1.000  H
  H96      1.0000 0.37160  0.39550  0.09210  Biso   1.000  H
  C72      1.0000 0.21750  0.10860  0.02446  Biso   1.000  C
  C73      1.0000 0.28180  0.07010  0.01147  Biso   1.000  C
  H97      1.0000 0.28940  0.09870  0.99080  Biso   1.000  H
  H98      1.0000 0.27180  0.01330  0.00580  Biso   1.000  H
  H99      1.0000 0.32430  0.07420  0.02980  Biso   1.000  H
  C74      1.0000 0.20530  0.06300  0.05741  Biso   1.000  C
  H100     1.0000 0.24650  0.07040  0.07630  Biso   1.000  H
  H101     1.0000 0.19860  0.00560  0.05220  Biso   1.000  H
  H102     1.0000 0.16330  0.08450  0.06450  Biso   1.000  H
  C75      1.0000 0.15020  0.09450  0.99544  Biso   1.000  C
  H103     1.0000 0.15570  0.12230  0.97420  Biso   1.000  H
  H104     1.0000 0.10860  0.11570  0.00320  Biso   1.000  H
  H105     1.0000 0.14400  0.03680  0.99080  Biso   1.000  H
  C76      1.0000 0.14420  0.41030  0.00333  Biso   1.000  C
  C77      1.0000 0.18270  0.46450  0.98182  Biso   1.000  C
  H106     1.0000 0.20000  0.43200  0.96450  Biso   1.000  H
  H107     1.0000 0.22280  0.49050  0.99710  Biso   1.000  H
  H108     1.0000 0.15020  0.50560  0.97010  Biso   1.000  H
  C78      1.0000 0.07940  0.37370  0.97910  Biso   1.000  C
  H109     1.0000 0.05060  0.41690  0.96640  Biso   1.000  H
  H110     1.0000 0.05130  0.34350  0.99280  Biso   1.000  H
  H111     1.0000 0.09510  0.33750  0.96250  Biso   1.000  H
  C79      1.0000 0.11930  0.46440  0.03120  Biso   1.000  C
  H112     1.0000 0.09430  0.43110  0.04540  Biso   1.000  H
  H113     1.0000 0.08750  0.50630  0.01960  Biso   1.000  H
  H114     1.0000 0.16040  0.48940  0.04610  Biso   1.000  H
  H115     1.0000 0.13380  0.52010  0.02860  Biso   1.000  H
  H116     1.0000 0.14060  0.44490  0.05450  Biso   1.000  H
  H117     1.0000 0.06770  0.46180  0.02800  Biso   1.000  H
  C80      1.0000 0.53018  0.22380  0.11231  Biso   1.000  C
  C81      1.0000 0.58393  0.20710  0.09243  Biso   1.000  C
  C82      1.0000 0.62943  0.27200  0.08789  Biso   1.000  C
  H118     1.0000 0.66560  0.26170  0.07540  Biso   1.000  H
  C83      1.0000 0.62440  0.35100  0.10083  Biso   1.000  C
  C84      1.0000 0.56880  0.36590  0.11869  Biso   1.000  C
  H119     1.0000 0.56220  0.41860  0.12680  Biso   1.000  H
  C85      1.0000 0.52290  0.30300  0.12458  Biso   1.000  C
  C86      1.0000 0.46290  0.32020  0.14398  Biso   1.000  C
  H120     1.0000 0.47270  0.29160  0.16650  Biso   1.000  H
  H121     1.0000 0.46170  0.37860  0.14880  Biso   1.000  H
  C87      1.0000 0.59048  0.12180  0.07660  Biso   1.000  C
  C88      1.0000 0.52010  0.10050  0.05034  Biso   1.000  C
  H122     1.0000 0.51070  0.14140  0.03210  Biso   1.000  H
  H123     1.0000 0.48090  0.09900  0.06270  Biso   1.000  H
  H124     1.0000 0.52490  0.04780  0.03990  Biso   1.000  H
  C89      1.0000 0.60710  0.05780  0.10604  Biso   1.000  C
  H125     1.0000 0.56980  0.05860  0.11960  Biso   1.000  H
  H126     1.0000 0.65250  0.07030  0.12120  Biso   1.000  H
  H127     1.0000 0.60920  0.00440  0.09580  Biso   1.000  H
  C90      1.0000 0.65160  0.11780  0.05585  Biso   1.000  C
  H128     1.0000 0.64290  0.15740  0.03700  Biso   1.000  H
  H129     1.0000 0.65330  0.06380  0.04610  Biso   1.000  H
  H130     1.0000 0.69660  0.12960  0.07150  Biso   1.000  H
  C91      1.0000 0.67560  0.42140  0.09545  Biso   1.000  C
  C92      1.0000 0.71290  0.45550  0.13158  Biso   1.000  C
  H131     1.0000 0.73910  0.41230  0.14550  Biso   1.000  H
  H132     1.0000 0.67730  0.47700  0.14360  Biso   1.000  H
  H133     1.0000 0.74550  0.49840  0.12830  Biso   1.000  H
  C93      1.0000 0.63380  0.48700  0.07270  Biso   1.000  C
  H134     1.0000 0.59590  0.50670  0.08370  Biso   1.000  H
  H135     1.0000 0.61330  0.46460  0.04980  Biso   1.000  H
  H136     1.0000 0.66540  0.53150  0.07000  Biso   1.000  H
  C94      1.0000 0.73530  0.39140  0.07718  Biso   1.000  C
  H137     1.0000 0.76280  0.34940  0.09130  Biso   1.000  H
  H138     1.0000 0.76640  0.43650  0.07450  Biso   1.000  H
  H139     1.0000 0.71430  0.36960  0.05430  Biso   1.000  H
  C95      1.0000 0.33450  0.31140  0.14395  Biso   1.000  C
  H140     1.0000 0.28900  0.32360  0.12820  Biso   1.000  H
  H141     1.0000 0.34850  0.35850  0.15920  Biso   1.000  H
  C96      1.0000 0.32698  0.23630  0.16603  Biso   1.000  C
  Al4      1.0000 0.76329  0.68907  0.28235  Biso   1.000  Al
  Al5      1.0000 0.71159  0.39828  0.33137  Biso   1.000  Al
  Al6      1.0000 0.60642  0.66521  0.38230  Biso   1.000  Al
  N4       1.0000 0.82608  0.61482  0.25392  Biso   1.000  N
  N5       1.0000 0.65431  0.34380  0.36679  Biso   1.000  N
  N6       1.0000 0.60941  0.79372  0.37691  Biso   1.000  N
  O13      1.0000 0.83966  0.74172  0.30325  Biso   1.000  O
  O14      1.0000 0.70959  0.72545  0.24358  Biso   1.000  O
  O15      1.0000 0.74281  0.58908  0.29905  Biso   1.000  O
  O16      1.0000 0.76192  0.45426  0.30126  Biso   1.000  O
  O17      1.0000 0.79360  0.36568  0.35696  Biso   1.000  O
  O18      1.0000 0.66567  0.34296  0.29531  Biso   1.000  O
  O19      1.0000 0.66997  0.49264  0.34490  Biso   1.000  O
  O20      1.0000 0.60877  0.54980  0.38217  Biso   1.000  O
  O21      1.0000 0.66286  0.66913  0.42362  Biso   1.000  O
  O22      1.0000 0.51381  0.66444  0.38041  Biso   1.000  O
  O23      1.0000 0.64656  0.67042  0.34240  Biso   1.000  O
  O24      1.0000 0.70666  0.74456  0.30968  Biso   1.000  O
  C97      1.0000 0.91035  0.72040  0.31187  Biso   1.000  C
  C98      1.0000 0.95325  0.74690  0.34434  Biso   1.000  C
  C99      1.0000 0.02397  0.71970  0.35223  Biso   1.000  C
  H142     1.0000 0.05260  0.73610  0.37360  Biso   1.000  H
  C100     1.0000 0.05484  0.66950  0.33008  Biso   1.000  C
  C101     1.0000 0.01221  0.64820  0.29776  Biso   1.000  C
  H143     1.0000 0.03160  0.61620  0.28200  Biso   1.000  H
  C102     1.0000 0.94063  0.67390  0.28833  Biso   1.000  C
  C103     1.0000 0.89680  0.65420  0.25233  Biso   1.000  C
  H144     1.0000 0.88800  0.70440  0.23860  Biso   1.000  H
  H145     1.0000 0.92420  0.61760  0.24020  Biso   1.000  H
  C104     1.0000 0.92160  0.80070  0.37055  Biso   1.000  C
  C105     1.0000 0.86970  0.74850  0.38667  Biso   1.000  C
  H146     1.0000 0.89460  0.70130  0.39790  Biso   1.000  H
  H147     1.0000 0.83040  0.73110  0.36830  Biso   1.000  H
  H148     1.0000 0.85140  0.78030  0.40390  Biso   1.000  H
  C106     1.0000 0.88250  0.87650  0.35243  Biso   1.000  C
  H149     1.0000 0.91560  0.90900  0.34240  Biso   1.000  H
  H150     1.0000 0.86430  0.90860  0.36950  Biso   1.000  H
  H151     1.0000 0.84330  0.85930  0.33400  Biso   1.000  H
  C107     1.0000 0.98180  0.83350  0.40048  Biso   1.000  C
  H152     1.0000 0.01460  0.86640  0.39050  Biso   1.000  H
  H153     1.0000 0.00730  0.78820  0.41310  Biso   1.000  H
  H154     1.0000 0.96090  0.86630  0.41650  Biso   1.000  H
  C108     1.0000 0.13315  0.63840  0.34230  Biso   1.000  C
  C109     1.0000 0.13630  0.58180  0.37412  Biso   1.000  C
  H155     1.0000 0.11980  0.61090  0.39260  Biso   1.000  H
  H156     1.0000 0.18500  0.56400  0.38250  Biso   1.000  H
  H157     1.0000 0.10600  0.53490  0.36720  Biso   1.000  H
  C110     1.0000 0.15930  0.59140  0.31341  Biso   1.000  C
  H158     1.0000 0.15760  0.62650  0.29320  Biso   1.000  H
  H159     1.0000 0.12900  0.54450  0.30670  Biso   1.000  H
  H160     1.0000 0.20800  0.57360  0.32200  Biso   1.000  H
  C111     1.0000 0.18310  0.71210  0.35305  Biso   1.000  C
  H161     1.0000 0.16720  0.74250  0.37140  Biso   1.000  H
  H162     1.0000 0.18210  0.74700  0.33290  Biso   1.000  H
  H163     1.0000 0.23140  0.69310  0.36160  Biso   1.000  H
  C112     1.0000 0.72530  0.73820  0.21142  Biso   1.000  C
  C113     1.0000 0.70364  0.81060  0.19257  Biso   1.000  C
  C114     1.0000 0.72320  0.82060  0.16007  Biso   1.000  C
  H164     1.0000 0.70950  0.86870  0.14760  Biso   1.000  H
  C115     1.0000 0.76200  0.76310  0.14515  Biso   1.000  C
  C116     1.0000 0.78200  0.69110  0.16435  Biso   1.000  C
  H165     1.0000 0.80800  0.65120  0.15500  Biso   1.000  H
  C117     1.0000 0.76390  0.67800  0.19690  Biso   1.000  C
  C118     1.0000 0.78350  0.59980  0.21740  Biso   1.000  C
  H166     1.0000 0.73970  0.57040  0.21900  Biso   1.000  H
  H167     1.0000 0.81130  0.56520  0.20470  Biso   1.000  H
  C119     1.0000 0.65880  0.87530  0.20787  Biso   1.000  C
  C120     1.0000 0.70520  0.91550  0.24120  Biso   1.000  C
  H168     1.0000 0.74700  0.94020  0.23510  Biso   1.000  H
  H169     1.0000 0.71980  0.87440  0.25900  Biso   1.000  H
  H170     1.0000 0.67740  0.95680  0.25010  Biso   1.000  H
  C121     1.0000 0.59170  0.83530  0.21655  Biso   1.000  C
  H171     1.0000 0.56410  0.87590  0.22600  Biso   1.000  H
  H172     1.0000 0.60570  0.79260  0.23370  Biso   1.000  H
  H173     1.0000 0.56300  0.81240  0.19540  Biso   1.000  H
  C122     1.0000 0.63400  0.94510  0.18126  Biso   1.000  C
  H174     1.0000 0.67540  0.97140  0.17530  Biso   1.000  H
  H175     1.0000 0.60690  0.98460  0.19160  Biso   1.000  H
  H176     1.0000 0.60430  0.92300  0.16020  Biso   1.000  H
  C123     1.0000 0.78450  0.77670  0.10985  Biso   1.000  C
  C124     1.0000 0.75370  0.85980  0.09300  Biso   1.000  C
  H177     1.0000 0.70230  0.86040  0.09070  Biso   1.000  H
  H178     1.0000 0.76520  0.86550  0.07000  Biso   1.000  H
  H179     1.0000 0.77450  0.90440  0.10780  Biso   1.000  H
  C125     1.0000 0.74670  0.71360  0.08294  Biso   1.000  C
  H180     1.0000 0.69550  0.71820  0.08070  Biso   1.000  H
  H181     1.0000 0.76190  0.65940  0.09090  Biso   1.000  H
  H182     1.0000 0.75910  0.72370  0.06040  Biso   1.000  H
  C126     1.0000 0.86200  0.77170  0.11399  Biso   1.000  C
  H183     1.0000 0.87510  0.78050  0.09150  Biso   1.000  H
  H184     1.0000 0.87810  0.71840  0.12280  Biso   1.000  H
  H185     1.0000 0.88430  0.81290  0.13040  Biso   1.000  H
  C127     1.0000 0.83645  0.53611  0.27300  Biso   1.000  C
  H186     1.0000 0.88210  0.53630  0.28980  Biso   1.000  H
  H187     1.0000 0.83710  0.49150  0.25640  Biso   1.000  H
  C128     1.0000 0.77560  0.52414  0.29220  Biso   1.000  C
  C129     1.0000 0.81337  0.34731  0.39134  Biso   1.000  C
  C130     1.0000 0.88187  0.37110  0.41104  Biso   1.000  C
  C131     1.0000 0.89765  0.35240  0.44677  Biso   1.000  C
  H188     1.0000 0.94200  0.36900  0.45990  Biso   1.000  H
  C132     1.0000 0.85090  0.31000  0.46454  Biso   1.000  C
  C133     1.0000 0.78531  0.28540  0.44401  Biso   1.000  C
  H189     1.0000 0.75310  0.25650  0.45460  Biso   1.000  H
  C134     1.0000 0.76677  0.30297  0.40819  Biso   1.000  C
  C135     1.0000 0.69554  0.27434  0.38648  Biso   1.000  C
  H190     1.0000 0.70420  0.23290  0.36980  Biso   1.000  H
  H191     1.0000 0.66720  0.24950  0.40200  Biso   1.000  H
  C136     1.0000 0.93627  0.41660  0.39296  Biso   1.000  C
  C137     1.0000 0.90700  0.49970  0.37838  Biso   1.000  C
  H192     1.0000 0.89610  0.53260  0.39730  Biso   1.000  H
  H193     1.0000 0.86390  0.49170  0.36070  Biso   1.000  H
  H194     1.0000 0.94240  0.52710  0.36800  Biso   1.000  H
  C138     1.0000 0.00760  0.43160  0.41964  Biso   1.000  C
  H195     1.0000 0.02700  0.38000  0.42920  Biso   1.000  H
  H196     1.0000 0.99870  0.46600  0.43850  Biso   1.000  H
  H197     1.0000 0.04140  0.45800  0.40780  Biso   1.000  H
  C139     1.0000 0.95340  0.36480  0.36297  Biso   1.000  C
  H198     1.0000 0.97180  0.31250  0.37210  Biso   1.000  H
  H199     1.0000 0.98880  0.39230  0.35260  Biso   1.000  H
  H200     1.0000 0.91030  0.35680  0.34530  Biso   1.000  H
  C140     1.0000 0.87000  0.29050  0.50409  Biso   1.000  C
  C141     1.0000 0.80990  0.32130  0.52230  Biso   1.000  C
  H201     1.0000 0.82220  0.30890  0.54710  Biso   1.000  H
  H202     1.0000 0.76540  0.29470  0.51200  Biso   1.000  H
  H203     1.0000 0.80450  0.37960  0.51910  Biso   1.000  H
  C142     1.0000 0.93990  0.33280  0.52319  Biso   1.000  C
  H204     1.0000 0.94930  0.31850  0.54780  Biso   1.000  H
  H205     1.0000 0.93470  0.39120  0.52070  Biso   1.000  H
  H206     1.0000 0.97940  0.31490  0.51290  Biso   1.000  H
  C143     1.0000 0.87680  0.19750  0.50938  Biso   1.000  C
  H207     1.0000 0.88880  0.18540  0.53420  Biso   1.000  H
  H208     1.0000 0.91400  0.17700  0.49810  Biso   1.000  H
  H209     1.0000 0.83190  0.17170  0.49910  Biso   1.000  H
  C144     1.0000 0.62498  0.27516  0.29166  Biso   1.000  C
  C145     1.0000 0.62076  0.22380  0.26170  Biso   1.000  C
  C146     1.0000 0.57501  0.15670  0.25872  Biso   1.000  C
  H210     1.0000 0.57140  0.12330  0.23890  Biso   1.000  H
  C147     1.0000 0.53355  0.13580  0.28399  Biso   1.000  C
  C148     1.0000 0.54078  0.18660  0.31360  Biso   1.000  C
  H211     1.0000 0.51560  0.17410  0.33130  Biso   1.000  H
  C149     1.0000 0.58501  0.25566  0.31727  Biso   1.000  C
  C150     1.0000 0.58239  0.31594  0.34662  Biso   1.000  C
  H212     1.0000 0.55530  0.36380  0.33650  Biso   1.000  H
  H213     1.0000 0.55630  0.29100  0.36310  Biso   1.000  H
  C151     1.0000 0.66543  0.24340  0.23349  Biso   1.000  C
  C152     1.0000 0.74592  0.23870  0.25027  Biso   1.000  C
  H214     1.0000 0.75700  0.18510  0.26030  Biso   1.000  H
  H215     1.0000 0.75740  0.27930  0.26860  Biso   1.000  H
  H216     1.0000 0.77370  0.24860  0.23250  Biso   1.000  H
  C153     1.0000 0.64650  0.32820  0.21741  Biso   1.000  C
  H217     1.0000 0.59610  0.33020  0.20700  Biso   1.000  H
  H218     1.0000 0.67400  0.33840  0.19950  Biso   1.000  H
  H219     1.0000 0.65770  0.36910  0.23560  Biso   1.000  H
  C154     1.0000 0.65040  0.18120  0.20265  Biso   1.000  C
  H220     1.0000 0.66170  0.12680  0.21170  Biso   1.000  H
  H221     1.0000 0.67980  0.19430  0.18580  Biso   1.000  H
  H222     1.0000 0.60050  0.18390  0.19130  Biso   1.000  H
  C155     1.0000 0.48347  0.06080  0.27822  Biso   1.000  C
  C156     1.0000 0.43550  0.05670  0.30580  Biso   1.000  C
  H223     1.0000 0.40640  0.10540  0.30420  Biso   1.000  H
  H224     1.0000 0.46520  0.05300  0.32910  Biso   1.000  H
  H225     1.0000 0.40490  0.00930  0.30140  Biso   1.000  H
  C157     1.0000 0.52880  0.98350  0.28130  Biso   1.000  C
  H226     1.0000 0.55980  0.98140  0.30430  Biso   1.000  H
  H227     1.0000 0.55740  0.98380  0.26340  Biso   1.000  H
  H228     1.0000 0.49780  0.93630  0.27820  Biso   1.000  H
  C158     1.0000 0.43350  0.06600  0.24203  Biso   1.000  C
  H229     1.0000 0.40540  0.11530  0.24060  Biso   1.000  H
  H230     1.0000 0.40200  0.01930  0.23870  Biso   1.000  H
  H231     1.0000 0.46160  0.06670  0.22390  Biso   1.000  H
  C159     1.0000 0.64103  0.41018  0.39065  Biso   1.000  C
  H232     1.0000 0.67910  0.41120  0.41170  Biso   1.000  H
  H233     1.0000 0.59560  0.40120  0.39790  Biso   1.000  H
  C160     1.0000 0.63903  0.49048  0.37103  Biso   1.000  C
  C161     1.0000 0.70869  0.72550  0.44161  Biso   1.000  C
  C162     1.0000 0.76860  0.69990  0.46694  Biso   1.000  C
  C163     1.0000 0.81440  0.76210  0.48410  Biso   1.000  C
  H234     1.0000 0.85450  0.74620  0.50090  Biso   1.000  H
  C164     1.0000 0.80420  0.84390  0.47782  Biso   1.000  C
  C165     1.0000 0.74320  0.86670  0.45301  Biso   1.000  C
  H235     1.0000 0.73440  0.92220  0.44830  Biso   1.000  H
  C166     1.0000 0.69510  0.80910  0.43502  Biso   1.000  C
  C167     1.0000 0.62580  0.83690  0.41194  Biso   1.000  C
  H236     1.0000 0.58670  0.82730  0.42420  Biso   1.000  H
  H237     1.0000 0.62840  0.89550  0.40790  Biso   1.000  H
  C168     1.0000 0.78250  0.60860  0.47554  Biso   1.000  C
  C169     1.0000 0.71820  0.57010  0.48853  Biso   1.000  C
  H238     1.0000 0.71060  0.59870  0.50920  Biso   1.000  H
  H239     1.0000 0.72820  0.51330  0.49420  Biso   1.000  H
  H240     1.0000 0.67570  0.57420  0.47020  Biso   1.000  H
  C170     1.0000 0.79470  0.56300  0.44259  Biso   1.000  C
  H241     1.0000 0.75350  0.57040  0.42370  Biso   1.000  H
  H242     1.0000 0.80140  0.50560  0.44780  Biso   1.000  H
  H243     1.0000 0.83670  0.58450  0.43550  Biso   1.000  H
  C171     1.0000 0.84980  0.59450  0.50456  Biso   1.000  C
  H244     1.0000 0.84430  0.62230  0.52580  Biso   1.000  H
  H245     1.0000 0.89140  0.61570  0.49680  Biso   1.000  H
  H246     1.0000 0.85600  0.53680  0.50920  Biso   1.000  H
  C172     1.0000 0.85580  0.91030  0.49667  Biso   1.000  C
  C173     1.0000 0.81730  0.96450  0.51818  Biso   1.000  C
  H247     1.0000 0.80000  0.93200  0.53550  Biso   1.000  H
  H248     1.0000 0.77720  0.99050  0.50290  Biso   1.000  H
  H249     1.0000 0.84980  0.00560  0.52990  Biso   1.000  H
  C174     1.0000 0.92060  0.87370  0.52090  Biso   1.000  C
  H250     1.0000 0.94940  0.91690  0.53360  Biso   1.000  H
  H251     1.0000 0.94870  0.84350  0.50720  Biso   1.000  H
  H252     1.0000 0.90490  0.83750  0.53750  Biso   1.000  H
  C175     1.0000 0.88070  0.96440  0.46880  Biso   1.000  C
  H253     1.0000 0.90570  0.93110  0.45460  Biso   1.000  H
  H254     1.0000 0.91250  0.00630  0.48040  Biso   1.000  H
  H255     1.0000 0.83960  0.98940  0.45390  Biso   1.000  H
  H256     1.0000 0.86620  0.02010  0.47140  Biso   1.000  H
  H257     1.0000 0.85940  0.94490  0.44550  Biso   1.000  H
  H258     1.0000 0.93230  0.96180  0.47200  Biso   1.000  H
  C176     1.0000 0.46982  0.72380  0.38769  Biso   1.000  C
  C177     1.0000 0.41607  0.70710  0.40757  Biso   1.000  C
  C178     1.0000 0.37057  0.77200  0.41211  Biso   1.000  C
  H259     1.0000 0.33440  0.76170  0.42460  Biso   1.000  H
  C179     1.0000 0.37560  0.85100  0.39917  Biso   1.000  C
  C180     1.0000 0.43120  0.86590  0.38131  Biso   1.000  C
  H260     1.0000 0.43780  0.91860  0.37320  Biso   1.000  H
  C181     1.0000 0.47710  0.80300  0.37542  Biso   1.000  C
  C182     1.0000 0.53710  0.82020  0.35602  Biso   1.000  C
  H261     1.0000 0.52730  0.79160  0.33350  Biso   1.000  H
  H262     1.0000 0.53830  0.87860  0.35120  Biso   1.000  H
  C183     1.0000 0.40952  0.62180  0.42340  Biso   1.000  C
  C184     1.0000 0.47990  0.60050  0.44966  Biso   1.000  C
  H263     1.0000 0.48930  0.64140  0.46790  Biso   1.000  H
  H264     1.0000 0.51910  0.59900  0.43730  Biso   1.000  H
  H265     1.0000 0.47510  0.54780  0.46010  Biso   1.000  H
  C185     1.0000 0.39290  0.55780  0.39396  Biso   1.000  C
  H266     1.0000 0.43020  0.55860  0.38040  Biso   1.000  H
  H267     1.0000 0.34750  0.57030  0.37880  Biso   1.000  H
  H268     1.0000 0.39080  0.50440  0.40420  Biso   1.000  H
  C186     1.0000 0.34840  0.61780  0.44415  Biso   1.000  C
  H269     1.0000 0.35710  0.65740  0.46300  Biso   1.000  H
  H270     1.0000 0.34670  0.56380  0.45390  Biso   1.000  H
  H271     1.0000 0.30340  0.62960  0.42850  Biso   1.000  H
  C187     1.0000 0.32440  0.92140  0.40455  Biso   1.000  C
  C188     1.0000 0.28710  0.95550  0.36842  Biso   1.000  C
  H272     1.0000 0.26090  0.91230  0.35450  Biso   1.000  H
  H273     1.0000 0.32270  0.97700  0.35640  Biso   1.000  H
  H274     1.0000 0.25450  0.99840  0.37170  Biso   1.000  H
  C189     1.0000 0.36620  0.98700  0.42730  Biso   1.000  C
  H275     1.0000 0.40410  0.00670  0.41630  Biso   1.000  H
  H276     1.0000 0.38670  0.96460  0.45020  Biso   1.000  H
  H277     1.0000 0.33460  0.03150  0.43000  Biso   1.000  H
  C190     1.0000 0.26470  0.89140  0.42282  Biso   1.000  C
  H278     1.0000 0.23720  0.84940  0.40870  Biso   1.000  H
  H279     1.0000 0.23360  0.93650  0.42550  Biso   1.000  H
  H280     1.0000 0.28570  0.86960  0.44570  Biso   1.000  H
  C191     1.0000 0.66550  0.81140  0.35605  Biso   1.000  C
  H281     1.0000 0.71100  0.82360  0.37180  Biso   1.000  H
  H282     1.0000 0.65150  0.85850  0.34080  Biso   1.000  H
  C192     1.0000 0.67302  0.73630  0.33397  Biso   1.000  C
  Al7      1.0000 0.76329  0.81093  0.78235  Biso   1.000  Al
  Al8      1.0000 0.71159  0.10172  0.83137  Biso   1.000  Al
  Al9      1.0000 0.60642  0.83479  0.88230  Biso   1.000  Al
  N7       1.0000 0.82608  0.88518  0.75392  Biso   1.000  N
  N8       1.0000 0.65431  0.15620  0.86679  Biso   1.000  N
  N9       1.0000 0.60941  0.70628  0.87691  Biso   1.000  N
  O25      1.0000 0.83966  0.75828  0.80325  Biso   1.000  O
  O26      1.0000 0.70959  0.77455  0.74358  Biso   1.000  O
  O27      1.0000 0.74281  0.91092  0.79905  Biso   1.000  O
  O28      1.0000 0.76192  0.04574  0.80126  Biso   1.000  O
  O29      1.0000 0.79360  0.13432  0.85696  Biso   1.000  O
  O30      1.0000 0.66567  0.15704  0.79531  Biso   1.000  O
  O31      1.0000 0.66997  0.00736  0.84490  Biso   1.000  O
  O32      1.0000 0.60877  0.95020  0.88217  Biso   1.000  O
  O33      1.0000 0.66286  0.83087  0.92362  Biso   1.000  O
  O34      1.0000 0.51381  0.83556  0.88041  Biso   1.000  O
  O35      1.0000 0.64656  0.82958  0.84240  Biso   1.000  O
  O36      1.0000 0.70666  0.75544  0.80968  Biso   1.000  O
  C193     1.0000 0.91035  0.77960  0.81187  Biso   1.000  C
  C194     1.0000 0.95325  0.75310  0.84434  Biso   1.000  C
  C195     1.0000 0.02397  0.78030  0.85223  Biso   1.000  C
  H283     1.0000 0.05260  0.76390  0.87360  Biso   1.000  H
  C196     1.0000 0.05484  0.83050  0.83008  Biso   1.000  C
  C197     1.0000 0.01221  0.85180  0.79776  Biso   1.000  C
  H284     1.0000 0.03160  0.88380  0.78200  Biso   1.000  H
  C198     1.0000 0.94063  0.82610  0.78833  Biso   1.000  C
  C199     1.0000 0.89680  0.84580  0.75233  Biso   1.000  C
  H285     1.0000 0.88800  0.79560  0.73860  Biso   1.000  H
  H286     1.0000 0.92420  0.88240  0.74020  Biso   1.000  H
  C200     1.0000 0.92160  0.69930  0.87055  Biso   1.000  C
  C201     1.0000 0.86970  0.75150  0.88667  Biso   1.000  C
  H287     1.0000 0.89460  0.79870  0.89790  Biso   1.000  H
  H288     1.0000 0.83040  0.76890  0.86830  Biso   1.000  H
  H289     1.0000 0.85140  0.71970  0.90390  Biso   1.000  H
  C202     1.0000 0.88250  0.62350  0.85243  Biso   1.000  C
  H290     1.0000 0.91560  0.59100  0.84240  Biso   1.000  H
  H291     1.0000 0.86430  0.59140  0.86950  Biso   1.000  H
  H292     1.0000 0.84330  0.64070  0.83400  Biso   1.000  H
  C203     1.0000 0.98180  0.66650  0.90048  Biso   1.000  C
  H293     1.0000 0.01460  0.63360  0.89050  Biso   1.000  H
  H294     1.0000 0.00730  0.71180  0.91310  Biso   1.000  H
  H295     1.0000 0.96090  0.63370  0.91650  Biso   1.000  H
  C204     1.0000 0.13315  0.86160  0.84230  Biso   1.000  C
  C205     1.0000 0.13630  0.91820  0.87412  Biso   1.000  C
  H296     1.0000 0.11980  0.88910  0.89260  Biso   1.000  H
  H297     1.0000 0.18500  0.93600  0.88250  Biso   1.000  H
  H298     1.0000 0.10600  0.96510  0.86720  Biso   1.000  H
  C206     1.0000 0.15930  0.90860  0.81341  Biso   1.000  C
  H299     1.0000 0.15760  0.87350  0.79320  Biso   1.000  H
  H300     1.0000 0.12900  0.95550  0.80670  Biso   1.000  H
  H301     1.0000 0.20800  0.92640  0.82200  Biso   1.000  H
  C207     1.0000 0.18310  0.78790  0.85305  Biso   1.000  C
  H302     1.0000 0.16720  0.75750  0.87140  Biso   1.000  H
  H303     1.0000 0.18210  0.75300  0.83290  Biso   1.000  H
  H304     1.0000 0.23140  0.80690  0.86160  Biso   1.000  H
  C208     1.0000 0.72530  0.76180  0.71142  Biso   1.000  C
  C209     1.0000 0.70364  0.68940  0.69257  Biso   1.000  C
  C210     1.0000 0.72320  0.67940  0.66007  Biso   1.000  C
  H305     1.0000 0.70950  0.63130  0.64760  Biso   1.000  H
  C211     1.0000 0.76200  0.73690  0.64515  Biso   1.000  C
  C212     1.0000 0.78200  0.80890  0.66435  Biso   1.000  C
  H306     1.0000 0.80800  0.84880  0.65500  Biso   1.000  H
  C213     1.0000 0.76390  0.82200  0.69690  Biso   1.000  C
  C214     1.0000 0.78350  0.90020  0.71740  Biso   1.000  C
  H307     1.0000 0.73970  0.92960  0.71900  Biso   1.000  H
  H308     1.0000 0.81130  0.93480  0.70470  Biso   1.000  H
  C215     1.0000 0.65880  0.62470  0.70787  Biso   1.000  C
  C216     1.0000 0.70520  0.58450  0.74120  Biso   1.000  C
  H309     1.0000 0.74700  0.55980  0.73510  Biso   1.000  H
  H310     1.0000 0.71980  0.62560  0.75900  Biso   1.000  H
  H311     1.0000 0.67740  0.54320  0.75010  Biso   1.000  H
  C217     1.0000 0.59170  0.66470  0.71655  Biso   1.000  C
  H312     1.0000 0.56410  0.62410  0.72600  Biso   1.000  H
  H313     1.0000 0.60570  0.70740  0.73370  Biso   1.000  H
  H314     1.0000 0.56300  0.68760  0.69540  Biso   1.000  H
  C218     1.0000 0.63400  0.55490  0.68126  Biso   1.000  C
  H315     1.0000 0.67540  0.52860  0.67530  Biso   1.000  H
  H316     1.0000 0.60690  0.51540  0.69160  Biso   1.000  H
  H317     1.0000 0.60430  0.57700  0.66020  Biso   1.000  H
  C219     1.0000 0.78450  0.72330  0.60985  Biso   1.000  C
  C220     1.0000 0.75370  0.64020  0.59300  Biso   1.000  C
  H318     1.0000 0.70230  0.63960  0.59070  Biso   1.000  H
  H319     1.0000 0.76520  0.63450  0.57000  Biso   1.000  H
  H320     1.0000 0.77450  0.59560  0.60780  Biso   1.000  H
  C221     1.0000 0.74670  0.78640  0.58294  Biso   1.000  C
  H321     1.0000 0.69550  0.78180  0.58070  Biso   1.000  H
  H322     1.0000 0.76190  0.84060  0.59090  Biso   1.000  H
  H323     1.0000 0.75910  0.77630  0.56040  Biso   1.000  H
  C222     1.0000 0.86200  0.72830  0.61399  Biso   1.000  C
  H324     1.0000 0.87510  0.71950  0.59150  Biso   1.000  H
  H325     1.0000 0.87810  0.78160  0.62280  Biso   1.000  H
  H326     1.0000 0.88430  0.68710  0.63040  Biso   1.000  H
  C223     1.0000 0.83645  0.96389  0.77300  Biso   1.000  C
  H327     1.0000 0.88210  0.96370  0.78980  Biso   1.000  H
  H328     1.0000 0.83710  0.00850  0.75640  Biso   1.000  H
  C224     1.0000 0.77560  0.97586  0.79220  Biso   1.000  C
  C225     1.0000 0.81337  0.15269  0.89134  Biso   1.000  C
  C226     1.0000 0.88187  0.12890  0.91104  Biso   1.000  C
  C227     1.0000 0.89765  0.14760  0.94677  Biso   1.000  C
  H329     1.0000 0.94200  0.13100  0.95990  Biso   1.000  H
  C228     1.0000 0.85090  0.19000  0.96454  Biso   1.000  C
  C229     1.0000 0.78531  0.21460  0.94401  Biso   1.000  C
  H330     1.0000 0.75310  0.24350  0.95460  Biso   1.000  H
  C230     1.0000 0.76677  0.19703  0.90819  Biso   1.000  C
  C231     1.0000 0.69554  0.22566  0.88648  Biso   1.000  C
  H331     1.0000 0.70420  0.26710  0.86980  Biso   1.000  H
  H332     1.0000 0.66720  0.25050  0.90200  Biso   1.000  H
  C232     1.0000 0.93627  0.08340  0.89296  Biso   1.000  C
  C233     1.0000 0.90700  0.00030  0.87838  Biso   1.000  C
  H333     1.0000 0.89610  0.96740  0.89730  Biso   1.000  H
  H334     1.0000 0.86390  0.00830  0.86070  Biso   1.000  H
  H335     1.0000 0.94240  0.97290  0.86800  Biso   1.000  H
  C234     1.0000 0.00760  0.06840  0.91964  Biso   1.000  C
  H336     1.0000 0.02700  0.12000  0.92920  Biso   1.000  H
  H337     1.0000 0.99870  0.03400  0.93850  Biso   1.000  H
  H338     1.0000 0.04140  0.04200  0.90780  Biso   1.000  H
  C235     1.0000 0.95340  0.13520  0.86297  Biso   1.000  C
  H339     1.0000 0.97180  0.18750  0.87210  Biso   1.000  H
  H340     1.0000 0.98880  0.10770  0.85260  Biso   1.000  H
  H341     1.0000 0.91030  0.14320  0.84530  Biso   1.000  H
  C236     1.0000 0.87000  0.20950  0.00409  Biso   1.000  C
  C237     1.0000 0.80990  0.17870  0.02230  Biso   1.000  C
  H342     1.0000 0.82220  0.19110  0.04710  Biso   1.000  H
  H343     1.0000 0.76540  0.20530  0.01200  Biso   1.000  H
  H344     1.0000 0.80450  0.12040  0.01910  Biso   1.000  H
  C238     1.0000 0.93990  0.16720  0.02319  Biso   1.000  C
  H345     1.0000 0.94930  0.18150  0.04780  Biso   1.000  H
  H346     1.0000 0.93470  0.10880  0.02070  Biso   1.000  H
  H347     1.0000 0.97940  0.18510  0.01290  Biso   1.000  H
  C239     1.0000 0.87680  0.30250  0.00938  Biso   1.000  C
  H348     1.0000 0.88880  0.31460  0.03420  Biso   1.000  H
  H349     1.0000 0.91400  0.32300  0.99810  Biso   1.000  H
  H350     1.0000 0.83190  0.32830  0.99910  Biso   1.000  H
  C240     1.0000 0.62498  0.22484  0.79166  Biso   1.000  C
  C241     1.0000 0.62076  0.27620  0.76170  Biso   1.000  C
  C242     1.0000 0.57501  0.34330  0.75872  Biso   1.000  C
  H351     1.0000 0.57140  0.37670  0.73890  Biso   1.000  H
  C243     1.0000 0.53355  0.36420  0.78399  Biso   1.000  C
  C244     1.0000 0.54078  0.31340  0.81360  Biso   1.000  C
  H352     1.0000 0.51560  0.32590  0.83130  Biso   1.000  H
  C245     1.0000 0.58501  0.24434  0.81727  Biso   1.000  C
  C246     1.0000 0.58239  0.18406  0.84662  Biso   1.000  C
  H353     1.0000 0.55530  0.13620  0.83650  Biso   1.000  H
  H354     1.0000 0.55630  0.20900  0.86310  Biso   1.000  H
  C247     1.0000 0.66543  0.25660  0.73349  Biso   1.000  C
  C248     1.0000 0.74592  0.26130  0.75027  Biso   1.000  C
  H355     1.0000 0.75700  0.31490  0.76030  Biso   1.000  H
  H356     1.0000 0.75740  0.22070  0.76860  Biso   1.000  H
  H357     1.0000 0.77370  0.25140  0.73250  Biso   1.000  H
  C249     1.0000 0.64650  0.17180  0.71741  Biso   1.000  C
  H358     1.0000 0.59610  0.16980  0.70700  Biso   1.000  H
  H359     1.0000 0.67400  0.16160  0.69950  Biso   1.000  H
  H360     1.0000 0.65770  0.13090  0.73560  Biso   1.000  H
  C250     1.0000 0.65040  0.31880  0.70265  Biso   1.000  C
  H361     1.0000 0.66170  0.37320  0.71170  Biso   1.000  H
  H362     1.0000 0.67980  0.30570  0.68580  Biso   1.000  H
  H363     1.0000 0.60050  0.31610  0.69130  Biso   1.000  H
  C251     1.0000 0.48347  0.43920  0.77822  Biso   1.000  C
  C252     1.0000 0.43550  0.44330  0.80580  Biso   1.000  C
  H364     1.0000 0.40640  0.39460  0.80420  Biso   1.000  H
  H365     1.0000 0.46520  0.44700  0.82910  Biso   1.000  H
  H366     1.0000 0.40490  0.49070  0.80140  Biso   1.000  H
  C253     1.0000 0.52880  0.51650  0.78130  Biso   1.000  C
  H367     1.0000 0.55980  0.51860  0.80430  Biso   1.000  H
  H368     1.0000 0.55740  0.51620  0.76340  Biso   1.000  H
  H369     1.0000 0.49780  0.56370  0.77820  Biso   1.000  H
  C254     1.0000 0.43350  0.43400  0.74203  Biso   1.000  C
  H370     1.0000 0.40540  0.38470  0.74060  Biso   1.000  H
  H371     1.0000 0.40200  0.48070  0.73870  Biso   1.000  H
  H372     1.0000 0.46160  0.43330  0.72390  Biso   1.000  H
  C255     1.0000 0.64103  0.08982  0.89065  Biso   1.000  C
  H373     1.0000 0.67910  0.08880  0.91170  Biso   1.000  H
  H374     1.0000 0.59560  0.09880  0.89790  Biso   1.000  H
  C256     1.0000 0.63903  0.00952  0.87103  Biso   1.000  C
  C257     1.0000 0.70869  0.77450  0.94161  Biso   1.000  C
  C258     1.0000 0.76860  0.80010  0.96694  Biso   1.000  C
  C259     1.0000 0.81440  0.73790  0.98410  Biso   1.000  C
  H375     1.0000 0.85450  0.75380  0.00090  Biso   1.000  H
  C260     1.0000 0.80420  0.65610  0.97782  Biso   1.000  C
  C261     1.0000 0.74320  0.63330  0.95301  Biso   1.000  C
  H376     1.0000 0.73440  0.57780  0.94830  Biso   1.000  H
  C262     1.0000 0.69510  0.69090  0.93502  Biso   1.000  C
  C263     1.0000 0.62580  0.66310  0.91194  Biso   1.000  C
  H377     1.0000 0.58670  0.67270  0.92420  Biso   1.000  H
  H378     1.0000 0.62840  0.60450  0.90790  Biso   1.000  H
  C264     1.0000 0.78250  0.89140  0.97554  Biso   1.000  C
  C265     1.0000 0.71820  0.92990  0.98853  Biso   1.000  C
  H379     1.0000 0.71060  0.90130  0.00920  Biso   1.000  H
  H380     1.0000 0.72820  0.98670  0.99420  Biso   1.000  H
  H381     1.0000 0.67570  0.92580  0.97020  Biso   1.000  H
  C266     1.0000 0.79470  0.93700  0.94259  Biso   1.000  C
  H382     1.0000 0.75350  0.92960  0.92370  Biso   1.000  H
  H383     1.0000 0.80140  0.99440  0.94780  Biso   1.000  H
  H384     1.0000 0.83670  0.91550  0.93550  Biso   1.000  H
  C267     1.0000 0.84980  0.90550  0.00456  Biso   1.000  C
  H385     1.0000 0.84430  0.87770  0.02580  Biso   1.000  H
  H386     1.0000 0.89140  0.88430  0.99680  Biso   1.000  H
  H387     1.0000 0.85600  0.96320  0.00920  Biso   1.000  H
  C268     1.0000 0.85580  0.58970  0.99667  Biso   1.000  C
  C269     1.0000 0.81730  0.53550  0.01818  Biso   1.000  C
  H388     1.0000 0.80000  0.56800  0.03550  Biso   1.000  H
  H389     1.0000 0.77720  0.50950  0.00290  Biso   1.000  H
  H390     1.0000 0.84980  0.49440  0.02990  Biso   1.000  H
  C270     1.0000 0.92060  0.62630  0.02090  Biso   1.000  C
  H391     1.0000 0.94940  0.58310  0.03360  Biso   1.000  H
  H392     1.0000 0.94870  0.65650  0.00720  Biso   1.000  H
  H393     1.0000 0.90490  0.66250  0.03750  Biso   1.000  H
  C271     1.0000 0.88070  0.53560  0.96880  Biso   1.000  C
  H394     1.0000 0.90570  0.56890  0.95460  Biso   1.000  H
  H395     1.0000 0.91250  0.49370  0.98040  Biso   1.000  H
  H396     1.0000 0.83960  0.51060  0.95390  Biso   1.000  H
  H397     1.0000 0.86620  0.47990  0.97140  Biso   1.000  H
  H398     1.0000 0.85940  0.55510  0.94550  Biso   1.000  H
  H399     1.0000 0.93230  0.53820  0.97200  Biso   1.000  H
  C272     1.0000 0.46982  0.77620  0.88769  Biso   1.000  C
  C273     1.0000 0.41607  0.79290  0.90757  Biso   1.000  C
  C274     1.0000 0.37057  0.72800  0.91211  Biso   1.000  C
  H400     1.0000 0.33440  0.73830  0.92460  Biso   1.000  H
  C275     1.0000 0.37560  0.64900  0.89917  Biso   1.000  C
  C276     1.0000 0.43120  0.63410  0.88131  Biso   1.000  C
  H401     1.0000 0.43780  0.58140  0.87320  Biso   1.000  H
  C277     1.0000 0.47710  0.69700  0.87542  Biso   1.000  C
  C278     1.0000 0.53710  0.67980  0.85602  Biso   1.000  C
  H402     1.0000 0.52730  0.70840  0.83350  Biso   1.000  H
  H403     1.0000 0.53830  0.62140  0.85120  Biso   1.000  H
  C279     1.0000 0.40952  0.87820  0.92340  Biso   1.000  C
  C280     1.0000 0.47990  0.89950  0.94966  Biso   1.000  C
  H404     1.0000 0.48930  0.85860  0.96790  Biso   1.000  H
  H405     1.0000 0.51910  0.90100  0.93730  Biso   1.000  H
  H406     1.0000 0.47510  0.95220  0.96010  Biso   1.000  H
  C281     1.0000 0.39290  0.94220  0.89396  Biso   1.000  C
  H407     1.0000 0.43020  0.94140  0.88040  Biso   1.000  H
  H408     1.0000 0.34750  0.92970  0.87880  Biso   1.000  H
  H409     1.0000 0.39080  0.99560  0.90420  Biso   1.000  H
  C282     1.0000 0.34840  0.88220  0.94415  Biso   1.000  C
  H410     1.0000 0.35710  0.84260  0.96300  Biso   1.000  H
  H411     1.0000 0.34670  0.93620  0.95390  Biso   1.000  H
  H412     1.0000 0.30340  0.87040  0.92850  Biso   1.000  H
  C283     1.0000 0.32440  0.57860  0.90455  Biso   1.000  C
  C284     1.0000 0.28710  0.54450  0.86842  Biso   1.000  C
  H413     1.0000 0.26090  0.58770  0.85450  Biso   1.000  H
  H414     1.0000 0.32270  0.52300  0.85640  Biso   1.000  H
  H415     1.0000 0.25450  0.50160  0.87170  Biso   1.000  H
  C285     1.0000 0.36620  0.51300  0.92730  Biso   1.000  C
  H416     1.0000 0.40410  0.49330  0.91630  Biso   1.000  H
  H417     1.0000 0.38670  0.53540  0.95020  Biso   1.000  H
  H418     1.0000 0.33460  0.46850  0.93000  Biso   1.000  H
  C286     1.0000 0.26470  0.60860  0.92282  Biso   1.000  C
  H419     1.0000 0.23720  0.65060  0.90870  Biso   1.000  H
  H420     1.0000 0.23360  0.56350  0.92550  Biso   1.000  H
  H421     1.0000 0.28570  0.63040  0.94570  Biso   1.000  H
  C287     1.0000 0.66550  0.68860  0.85605  Biso   1.000  C
  H422     1.0000 0.71100  0.67640  0.87180  Biso   1.000  H
  H423     1.0000 0.65150  0.64150  0.84080  Biso   1.000  H
  C288     1.0000 0.67302  0.76370  0.83397  Biso   1.000  C
  Al10     1.0000 0.23671  0.31093  0.71765  Biso   1.000  Al
  Al11     1.0000 0.28841  0.60172  0.66863  Biso   1.000  Al
  Al12     1.0000 0.39358  0.33479  0.61770  Biso   1.000  Al
  N10      1.0000 0.17392  0.38518  0.74608  Biso   1.000  N
  N11      1.0000 0.34569  0.65620  0.63321  Biso   1.000  N
  N12      1.0000 0.39059  0.20628  0.62309  Biso   1.000  N
  O37      1.0000 0.16034  0.25828  0.69675  Biso   1.000  O
  O38      1.0000 0.29041  0.27455  0.75642  Biso   1.000  O
  O39      1.0000 0.25719  0.41092  0.70095  Biso   1.000  O
  O40      1.0000 0.23808  0.54574  0.69874  Biso   1.000  O
  O41      1.0000 0.20640  0.63432  0.64304  Biso   1.000  O
  O42      1.0000 0.33433  0.65704  0.70469  Biso   1.000  O
  O43      1.0000 0.33003  0.50736  0.65510  Biso   1.000  O
  O44      1.0000 0.39123  0.45020  0.61783  Biso   1.000  O
  O45      1.0000 0.33714  0.33087  0.57638  Biso   1.000  O
  O46      1.0000 0.48619  0.33556  0.61959  Biso   1.000  O
  O47      1.0000 0.35344  0.32958  0.65760  Biso   1.000  O
  O48      1.0000 0.29334  0.25544  0.69032  Biso   1.000  O
  C289     1.0000 0.08965  0.27960  0.68813  Biso   1.000  C
  C290     1.0000 0.04675  0.25310  0.65566  Biso   1.000  C
  C291     1.0000 0.97603  0.28030  0.64777  Biso   1.000  C
  H424     1.0000 0.94740  0.26390  0.62640  Biso   1.000  H
  C292     1.0000 0.94516  0.33050  0.66992  Biso   1.000  C
  C293     1.0000 0.98779  0.35180  0.70224  Biso   1.000  C
  H425     1.0000 0.96840  0.38380  0.71800  Biso   1.000  H
  C294     1.0000 0.05937  0.32610  0.71167  Biso   1.000  C
  C295     1.0000 0.10320  0.34580  0.74767  Biso   1.000  C
  H426     1.0000 0.11200  0.29560  0.76140  Biso   1.000  H
  H427     1.0000 0.07580  0.38240  0.75980  Biso   1.000  H
  C296     1.0000 0.07840  0.19930  0.62945  Biso   1.000  C
  C297     1.0000 0.13030  0.25150  0.61333  Biso   1.000  C
  H428     1.0000 0.10540  0.29870  0.60210  Biso   1.000  H
  H429     1.0000 0.16960  0.26890  0.63170  Biso   1.000  H
  H430     1.0000 0.14860  0.21970  0.59610  Biso   1.000  H
  C298     1.0000 0.11750  0.12350  0.64757  Biso   1.000  C
  H431     1.0000 0.08440  0.09100  0.65760  Biso   1.000  H
  H432     1.0000 0.13570  0.09140  0.63050  Biso   1.000  H
  H433     1.0000 0.15670  0.14070  0.66600  Biso   1.000  H
  C299     1.0000 0.01820  0.16650  0.59952  Biso   1.000  C
  H434     1.0000 0.98540  0.13360  0.60950  Biso   1.000  H
  H435     1.0000 0.99270  0.21180  0.58690  Biso   1.000  H
  H436     1.0000 0.03910  0.13370  0.58350  Biso   1.000  H
  C300     1.0000 0.86685  0.36160  0.65770  Biso   1.000  C
  C301     1.0000 0.86370  0.41820  0.62588  Biso   1.000  C
  H437     1.0000 0.88020  0.38910  0.60740  Biso   1.000  H
  H438     1.0000 0.81500  0.43600  0.61750  Biso   1.000  H
  H439     1.0000 0.89400  0.46510  0.63280  Biso   1.000  H
  C302     1.0000 0.84070  0.40860  0.68659  Biso   1.000  C
  H440     1.0000 0.84240  0.37350  0.70680  Biso   1.000  H
  H441     1.0000 0.87100  0.45550  0.69330  Biso   1.000  H
  H442     1.0000 0.79200  0.42640  0.67800  Biso   1.000  H
  C303     1.0000 0.81690  0.28790  0.64695  Biso   1.000  C
  H443     1.0000 0.83280  0.25750  0.62860  Biso   1.000  H
  H444     1.0000 0.81790  0.25300  0.66710  Biso   1.000  H
  H445     1.0000 0.76860  0.30690  0.63840  Biso   1.000  H
  C304     1.0000 0.27470  0.26180  0.78858  Biso   1.000  C
  C305     1.0000 0.29636  0.18940  0.80743  Biso   1.000  C
  C306     1.0000 0.27680  0.17940  0.83993  Biso   1.000  C
  H446     1.0000 0.29050  0.13130  0.85240  Biso   1.000  H
  C307     1.0000 0.23800  0.23690  0.85485  Biso   1.000  C
  C308     1.0000 0.21800  0.30890  0.83565  Biso   1.000  C
  H447     1.0000 0.19200  0.34880  0.84500  Biso   1.000  H
  C309     1.0000 0.23610  0.32200  0.80310  Biso   1.000  C
  C310     1.0000 0.21650  0.40020  0.78260  Biso   1.000  C
  H448     1.0000 0.26030  0.42960  0.78100  Biso   1.000  H
  H449     1.0000 0.18870  0.43480  0.79530  Biso   1.000  H
  C311     1.0000 0.34120  0.12470  0.79213  Biso   1.000  C
  C312     1.0000 0.29480  0.08450  0.75880  Biso   1.000  C
  H450     1.0000 0.25300  0.05980  0.76490  Biso   1.000  H
  H451     1.0000 0.28020  0.12560  0.74100  Biso   1.000  H
  H452     1.0000 0.32260  0.04320  0.74990  Biso   1.000  H
  C313     1.0000 0.40830  0.16470  0.78345  Biso   1.000  C
  H453     1.0000 0.43590  0.12410  0.77400  Biso   1.000  H
  H454     1.0000 0.39430  0.20740  0.76630  Biso   1.000  H
  H455     1.0000 0.43700  0.18760  0.80460  Biso   1.000  H
  C314     1.0000 0.36600  0.05490  0.81874  Biso   1.000  C
  H456     1.0000 0.32460  0.02860  0.82470  Biso   1.000  H
  H457     1.0000 0.39310  0.01540  0.80840  Biso   1.000  H
  H458     1.0000 0.39570  0.07700  0.83980  Biso   1.000  H
  C315     1.0000 0.21550  0.22330  0.89015  Biso   1.000  C
  C316     1.0000 0.24630  0.14020  0.90700  Biso   1.000  C
  H459     1.0000 0.29770  0.13960  0.90930  Biso   1.000  H
  H460     1.0000 0.23480  0.13450  0.93000  Biso   1.000  H
  H461     1.0000 0.22550  0.09560  0.89220  Biso   1.000  H
  C317     1.0000 0.25330  0.28640  0.91706  Biso   1.000  C
  H462     1.0000 0.30450  0.28180  0.91930  Biso   1.000  H
  H463     1.0000 0.23810  0.34060  0.90910  Biso   1.000  H
  H464     1.0000 0.24090  0.27630  0.93960  Biso   1.000  H
  C318     1.0000 0.13800  0.22830  0.88601  Biso   1.000  C
  H465     1.0000 0.12490  0.21950  0.90850  Biso   1.000  H
  H466     1.0000 0.12190  0.28160  0.87720  Biso   1.000  H
  H467     1.0000 0.11570  0.18710  0.86960  Biso   1.000  H
  C319     1.0000 0.16355  0.46389  0.72700  Biso   1.000  C
  H468     1.0000 0.11790  0.46370  0.71020  Biso   1.000  H
  H469     1.0000 0.16290  0.50850  0.74360  Biso   1.000  H
  C320     1.0000 0.22440  0.47586  0.70780  Biso   1.000  C
  C321     1.0000 0.18663  0.65269  0.60866  Biso   1.000  C
  C322     1.0000 0.11813  0.62890  0.58896  Biso   1.000  C
  C323     1.0000 0.10235  0.64760  0.55323  Biso   1.000  C
  H470     1.0000 0.05800  0.63100  0.54010  Biso   1.000  H
  C324     1.0000 0.14910  0.69000  0.53546  Biso   1.000  C
  C325     1.0000 0.21469  0.71460  0.55599  Biso   1.000  C
  H471     1.0000 0.24690  0.74350  0.54540  Biso   1.000  H
  C326     1.0000 0.23323  0.69703  0.59181  Biso   1.000  C
  C327     1.0000 0.30446  0.72566  0.61352  Biso   1.000  C
  H472     1.0000 0.29580  0.76710  0.63020  Biso   1.000  H
  H473     1.0000 0.33280  0.75050  0.59800  Biso   1.000  H
  C328     1.0000 0.06373  0.58340  0.60704  Biso   1.000  C
  C329     1.0000 0.09300  0.50030  0.62162  Biso   1.000  C
  H474     1.0000 0.10390  0.46740  0.60270  Biso   1.000  H
  H475     1.0000 0.13610  0.50830  0.63930  Biso   1.000  H
  H476     1.0000 0.05760  0.47290  0.63200  Biso   1.000  H
  C330     1.0000 0.99240  0.56840  0.58036  Biso   1.000  C
  H477     1.0000 0.97300  0.62000  0.57080  Biso   1.000  H
  H478     1.0000 0.00130  0.53400  0.56150  Biso   1.000  H
  H479     1.0000 0.95860  0.54200  0.59220  Biso   1.000  H
  C331     1.0000 0.04660  0.63520  0.63703  Biso   1.000  C
  H480     1.0000 0.02820  0.68750  0.62790  Biso   1.000  H
  H481     1.0000 0.01120  0.60770  0.64740  Biso   1.000  H
  H482     1.0000 0.08970  0.64320  0.65470  Biso   1.000  H
  C332     1.0000 0.13000  0.70950  0.49591  Biso   1.000  C
  C333     1.0000 0.19010  0.67870  0.47770  Biso   1.000  C
  H483     1.0000 0.17780  0.69110  0.45290  Biso   1.000  H
  H484     1.0000 0.23460  0.70530  0.48800  Biso   1.000  H
  H485     1.0000 0.19550  0.62040  0.48090  Biso   1.000  H
  C334     1.0000 0.06010  0.66720  0.47681  Biso   1.000  C
  H486     1.0000 0.05070  0.68150  0.45220  Biso   1.000  H
  H487     1.0000 0.06530  0.60880  0.47930  Biso   1.000  H
  H488     1.0000 0.02060  0.68510  0.48710  Biso   1.000  H
  C335     1.0000 0.12320  0.80250  0.49062  Biso   1.000  C
  H489     1.0000 0.11120  0.81460  0.46580  Biso   1.000  H
  H490     1.0000 0.08600  0.82300  0.50190  Biso   1.000  H
  H491     1.0000 0.16810  0.82830  0.50090  Biso   1.000  H
  C336     1.0000 0.37502  0.72484  0.70834  Biso   1.000  C
  C337     1.0000 0.37924  0.77620  0.73830  Biso   1.000  C
  C338     1.0000 0.42499  0.84330  0.74128  Biso   1.000  C
  H492     1.0000 0.42860  0.87670  0.76110  Biso   1.000  H
  C339     1.0000 0.46645  0.86420  0.71601  Biso   1.000  C
  C340     1.0000 0.45922  0.81340  0.68640  Biso   1.000  C
  H493     1.0000 0.48440  0.82590  0.66870  Biso   1.000  H
  C341     1.0000 0.41499  0.74434  0.68273  Biso   1.000  C
  C342     1.0000 0.41761  0.68406  0.65338  Biso   1.000  C
  H494     1.0000 0.44470  0.63620  0.66350  Biso   1.000  H
  H495     1.0000 0.44370  0.70900  0.63690  Biso   1.000  H
  C343     1.0000 0.33457  0.75660  0.76651  Biso   1.000  C
  C344     1.0000 0.25408  0.76130  0.74973  Biso   1.000  C
  H496     1.0000 0.24300  0.81490  0.73970  Biso   1.000  H
  H497     1.0000 0.24260  0.72070  0.73140  Biso   1.000  H
  H498     1.0000 0.22630  0.75140  0.76750  Biso   1.000  H
  C345     1.0000 0.35350  0.67180  0.78259  Biso   1.000  C
  H499     1.0000 0.40390  0.66980  0.79300  Biso   1.000  H
  H500     1.0000 0.32600  0.66160  0.80050  Biso   1.000  H
  H501     1.0000 0.34230  0.63090  0.76440  Biso   1.000  H
  C346     1.0000 0.34960  0.81880  0.79735  Biso   1.000  C
  H502     1.0000 0.33830  0.87320  0.78830  Biso   1.000  H
  H503     1.0000 0.32020  0.80570  0.81420  Biso   1.000  H
  H504     1.0000 0.39950  0.81610  0.80870  Biso   1.000  H
  C347     1.0000 0.51653  0.93920  0.72178  Biso   1.000  C
  C348     1.0000 0.56450  0.94330  0.69420  Biso   1.000  C
  H505     1.0000 0.59360  0.89460  0.69580  Biso   1.000  H
  H506     1.0000 0.53480  0.94700  0.67090  Biso   1.000  H
  H507     1.0000 0.59510  0.99070  0.69860  Biso   1.000  H
  C349     1.0000 0.47120  0.01650  0.71870  Biso   1.000  C
  H508     1.0000 0.44020  0.01860  0.69570  Biso   1.000  H
  H509     1.0000 0.44260  0.01620  0.73660  Biso   1.000  H
  H510     1.0000 0.50220  0.06370  0.72180  Biso   1.000  H
  C350     1.0000 0.56650  0.93400  0.75797  Biso   1.000  C
  H511     1.0000 0.59460  0.88470  0.75940  Biso   1.000  H
  H512     1.0000 0.59800  0.98070  0.76130  Biso   1.000  H
  H513     1.0000 0.53840  0.93330  0.77610  Biso   1.000  H
  C351     1.0000 0.35897  0.58982  0.60935  Biso   1.000  C
  H514     1.0000 0.32090  0.58880  0.58830  Biso   1.000  H
  H515     1.0000 0.40440  0.59880  0.60210  Biso   1.000  H
  C352     1.0000 0.36097  0.50952  0.62897  Biso   1.000  C
  C353     1.0000 0.29131  0.27450  0.55839  Biso   1.000  C
  C354     1.0000 0.23140  0.30010  0.53306  Biso   1.000  C
  C355     1.0000 0.18560  0.23790  0.51590  Biso   1.000  C
  H516     1.0000 0.14550  0.25380  0.49910  Biso   1.000  H
  C356     1.0000 0.19580  0.15610  0.52218  Biso   1.000  C
  C357     1.0000 0.25680  0.13330  0.54699  Biso   1.000  C
  H517     1.0000 0.26560  0.07780  0.55170  Biso   1.000  H
  C358     1.0000 0.30490  0.19090  0.56498  Biso   1.000  C
  C359     1.0000 0.37420  0.16310  0.58806  Biso   1.000  C
  H518     1.0000 0.41330  0.17270  0.57580  Biso   1.000  H
  H519     1.0000 0.37160  0.10450  0.59210  Biso   1.000  H
  C360     1.0000 0.21750  0.39140  0.52446  Biso   1.000  C
  C361     1.0000 0.28180  0.42990  0.51147  Biso   1.000  C
  H520     1.0000 0.28940  0.40130  0.49080  Biso   1.000  H
  H521     1.0000 0.27180  0.48670  0.50580  Biso   1.000  H
  H522     1.0000 0.32430  0.42580  0.52980  Biso   1.000  H
  C362     1.0000 0.20530  0.43700  0.55741  Biso   1.000  C
  H523     1.0000 0.24650  0.42960  0.57630  Biso   1.000  H
  H524     1.0000 0.19860  0.49440  0.55220  Biso   1.000  H
  H525     1.0000 0.16330  0.41550  0.56450  Biso   1.000  H
  C363     1.0000 0.15020  0.40550  0.49544  Biso   1.000  C
  H526     1.0000 0.15570  0.37770  0.47420  Biso   1.000  H
  H527     1.0000 0.10860  0.38430  0.50320  Biso   1.000  H
  H528     1.0000 0.14400  0.46320  0.49080  Biso   1.000  H
  C364     1.0000 0.14420  0.08970  0.50333  Biso   1.000  C
  C365     1.0000 0.18270  0.03550  0.48182  Biso   1.000  C
  H529     1.0000 0.20000  0.06800  0.46450  Biso   1.000  H
  H530     1.0000 0.22280  0.00950  0.49710  Biso   1.000  H
  H531     1.0000 0.15020  0.99440  0.47010  Biso   1.000  H
  C366     1.0000 0.07940  0.12630  0.47910  Biso   1.000  C
  H532     1.0000 0.05060  0.08310  0.46640  Biso   1.000  H
  H533     1.0000 0.05130  0.15650  0.49280  Biso   1.000  H
  H534     1.0000 0.09510  0.16250  0.46250  Biso   1.000  H
  C367     1.0000 0.11930  0.03560  0.53120  Biso   1.000  C
  H535     1.0000 0.09430  0.06890  0.54540  Biso   1.000  H
  H536     1.0000 0.08750  0.99370  0.51960  Biso   1.000  H
  H537     1.0000 0.16040  0.01060  0.54610  Biso   1.000  H
  H538     1.0000 0.13380  0.97990  0.52860  Biso   1.000  H
  H539     1.0000 0.14060  0.05510  0.55450  Biso   1.000  H
  H540     1.0000 0.06770  0.03820  0.52800  Biso   1.000  H
  C368     1.0000 0.53018  0.27620  0.61231  Biso   1.000  C
  C369     1.0000 0.58393  0.29290  0.59243  Biso   1.000  C
  C370     1.0000 0.62943  0.22800  0.58789  Biso   1.000  C
  H541     1.0000 0.66560  0.23830  0.57540  Biso   1.000  H
  C371     1.0000 0.62440  0.14900  0.60083  Biso   1.000  C
  C372     1.0000 0.56880  0.13410  0.61869  Biso   1.000  C
  H542     1.0000 0.56220  0.08140  0.62680  Biso   1.000  H
  C373     1.0000 0.52290  0.19700  0.62458  Biso   1.000  C
  C374     1.0000 0.46290  0.17980  0.64398  Biso   1.000  C
  H543     1.0000 0.47270  0.20840  0.66650  Biso   1.000  H
  H544     1.0000 0.46170  0.12140  0.64880  Biso   1.000  H
  C375     1.0000 0.59048  0.37820  0.57660  Biso   1.000  C
  C376     1.0000 0.52010  0.39950  0.55034  Biso   1.000  C
  H545     1.0000 0.51070  0.35860  0.53210  Biso   1.000  H
  H546     1.0000 0.48090  0.40100  0.56270  Biso   1.000  H
  H547     1.0000 0.52490  0.45220  0.53990  Biso   1.000  H
  C377     1.0000 0.60710  0.44220  0.60604  Biso   1.000  C
  H548     1.0000 0.56980  0.44140  0.61960  Biso   1.000  H
  H549     1.0000 0.65250  0.42970  0.62120  Biso   1.000  H
  H550     1.0000 0.60920  0.49560  0.59580  Biso   1.000  H
  C378     1.0000 0.65160  0.38220  0.55585  Biso   1.000  C
  H551     1.0000 0.64290  0.34260  0.53700  Biso   1.000  H
  H552     1.0000 0.65330  0.43620  0.54610  Biso   1.000  H
  H553     1.0000 0.69660  0.37040  0.57150  Biso   1.000  H
  C379     1.0000 0.67560  0.07860  0.59545  Biso   1.000  C
  C380     1.0000 0.71290  0.04450  0.63158  Biso   1.000  C
  H554     1.0000 0.73910  0.08770  0.64550  Biso   1.000  H
  H555     1.0000 0.67730  0.02300  0.64360  Biso   1.000  H
  H556     1.0000 0.74550  0.00160  0.62830  Biso   1.000  H
  C381     1.0000 0.63380  0.01300  0.57270  Biso   1.000  C
  H557     1.0000 0.59590  0.99330  0.58370  Biso   1.000  H
  H558     1.0000 0.61330  0.03540  0.54980  Biso   1.000  H
  H559     1.0000 0.66540  0.96850  0.57000  Biso   1.000  H
  C382     1.0000 0.73530  0.10860  0.57718  Biso   1.000  C
  H560     1.0000 0.76280  0.15060  0.59130  Biso   1.000  H
  H561     1.0000 0.76640  0.06350  0.57450  Biso   1.000  H
  H562     1.0000 0.71430  0.13040  0.55430  Biso   1.000  H
  C383     1.0000 0.33450  0.18860  0.64395  Biso   1.000  C
  H563     1.0000 0.28900  0.17640  0.62820  Biso   1.000  H
  H564     1.0000 0.34850  0.14150  0.65920  Biso   1.000  H
  C384     1.0000 0.32698  0.26370  0.66603  Biso   1.000  C
