data_image0
_cell_length_a       36.657
_cell_length_b       36.657
_cell_length_c       10.461
_cell_angle_alpha    90
_cell_angle_beta     90
_cell_angle_gamma    120

_symmetry_space_group_name_H-M    "P 1"
_symmetry_int_tables_number       1

loop_
  _symmetry_equiv_pos_as_xyz
  'x, y, z'

loop_
  _atom_site_label
  _atom_site_occupancy
  _atom_site_fract_x
  _atom_site_fract_y
  _atom_site_fract_z
  _atom_site_thermal_displace_type
  _atom_site_B_iso_or_equiv
  _atom_site_type_symbol
  N1       1.0000 0.04598  0.49696  0.89050  Biso   1.000  N
  N2       1.0000 0.98148  0.44040  0.07570  Biso   1.000  N
  C1       1.0000 0.05237  0.39907  0.95770  Biso   1.000  C
  C2       1.0000 0.00001  0.41642  0.04920  Biso   1.000  C
  C3       1.0000 0.09134  0.47681  0.81290  Biso   1.000  C
  H1       1.0000 0.10450  0.46060  0.79640  Biso   1.000  H
  C4       1.0000 0.94954  0.41914  0.16390  Biso   1.000  C
  C5       1.0000 0.03467  0.42815  0.96740  Biso   1.000  C
  C6       1.0000 0.07488  0.52877  0.81120  Biso   1.000  C
  C7       1.0000 0.05571  0.46454  0.89590  Biso   1.000  C
  C8       1.0000 0.10308  0.51521  0.76190  Biso   1.000  C
  H2       1.0000 0.12570  0.53040  0.70410  Biso   1.000  H
  C9       1.0000 0.09238  0.35100  0.93170  Biso   1.000  C
  C10      1.0000 0.09844  0.37498  0.03890  Biso   1.000  C
  H3       1.0000 0.11680  0.37580  0.10440  Biso   1.000  H
  C11      1.0000 0.97760  0.37783  0.11990  Biso   1.000  C
  H4       1.0000 0.98330  0.35530  0.11930  Biso   1.000  H
  C12      1.0000 0.04560  0.37497  0.84770  Biso   1.000  C
  H5       1.0000 0.02780  0.37490  0.78150  Biso   1.000  H
  C13      1.0000 0.94688  0.37927  0.18760  Biso   1.000  C
  H6       1.0000 0.92700  0.35760  0.24160  Biso   1.000  H
  C14      1.0000 0.92371  0.43322  0.21560  Biso   1.000  C
  C15      1.0000 0.88974  0.40486  0.30840  Biso   1.000  C
  C16      1.0000 0.07798  0.39806  0.05270  Biso   1.000  C
  H7       1.0000 0.08170  0.41350  0.12920  Biso   1.000  H
  C17      1.0000 0.06559  0.35070  0.83630  Biso   1.000  C
  H8       1.0000 0.06070  0.33390  0.76220  Biso   1.000  H
  C18      1.0000 0.81950  0.35000  0.35430  Biso   1.000  C
  H9       1.0000 0.79270  0.32920  0.32350  Biso   1.000  H
  C19      1.0000 0.11550  0.32690  0.91270  Biso   1.000  C
  H10      1.0000 0.13670  0.33450  0.98020  Biso   1.000  H
  H11      1.0000 0.12940  0.33390  0.82910  Biso   1.000  H
  H12      1.0000 0.09540  0.29660  0.91660  Biso   1.000  H
  C20      1.0000 0.82500  0.35580  0.48100  Biso   1.000  C
  C21      1.0000 0.89510  0.41150  0.43560  Biso   1.000  C
  H13      1.0000 0.92130  0.43320  0.46750  Biso   1.000  H
  C22      1.0000 0.85190  0.37329  0.26370  Biso   1.000  C
  H14      1.0000 0.84740  0.36720  0.17500  Biso   1.000  H
  C23      1.0000 0.86270  0.38670  0.52130  Biso   1.000  C
  H15      1.0000 0.86740  0.39190  0.61050  Biso   1.000  H
  C24      1.0000 0.79010  0.32870  0.57480  Biso   1.000  C
  H16      1.0000 0.76470  0.30890  0.52750  Biso   1.000  H
  H17      1.0000 0.78380  0.34680  0.62860  Biso   1.000  H
  H18      1.0000 0.79930  0.31300  0.62890  Biso   1.000  H
  N3       1.0000 0.95402  0.50304  0.10950  Biso   1.000  N
  N4       1.0000 0.01852  0.55960  0.92430  Biso   1.000  N
  C25      1.0000 0.94763  0.60093  0.04230  Biso   1.000  C
  C26      1.0000 0.99999  0.58358  0.95080  Biso   1.000  C
  C27      1.0000 0.90866  0.52319  0.18710  Biso   1.000  C
  H19      1.0000 0.89550  0.53940  0.20360  Biso   1.000  H
  C28      1.0000 0.05046  0.58086  0.83610  Biso   1.000  C
  C29      1.0000 0.96533  0.57185  0.03260  Biso   1.000  C
  C30      1.0000 0.92512  0.47123  0.18880  Biso   1.000  C
  C31      1.0000 0.94429  0.53546  0.10410  Biso   1.000  C
  C32      1.0000 0.89692  0.48479  0.23810  Biso   1.000  C
  H20      1.0000 0.87430  0.46960  0.29590  Biso   1.000  H
  C33      1.0000 0.90762  0.64900  0.06830  Biso   1.000  C
  C34      1.0000 0.90156  0.62502  0.96110  Biso   1.000  C
  H21      1.0000 0.88320  0.62420  0.89560  Biso   1.000  H
  C35      1.0000 0.02240  0.62217  0.88010  Biso   1.000  C
  H22      1.0000 0.01670  0.64470  0.88070  Biso   1.000  H
  C36      1.0000 0.95440  0.62503  0.15230  Biso   1.000  C
  H23      1.0000 0.97220  0.62510  0.21850  Biso   1.000  H
  C37      1.0000 0.05312  0.62073  0.81240  Biso   1.000  C
  H24      1.0000 0.07300  0.64240  0.75840  Biso   1.000  H
  C38      1.0000 0.07629  0.56678  0.78440  Biso   1.000  C
  C39      1.0000 0.11026  0.59514  0.69160  Biso   1.000  C
  C40      1.0000 0.92202  0.60194  0.94730  Biso   1.000  C
  H25      1.0000 0.91830  0.58650  0.87080  Biso   1.000  H
  C41      1.0000 0.93441  0.64930  0.16370  Biso   1.000  C
  H26      1.0000 0.93930  0.66610  0.23780  Biso   1.000  H
  C42      1.0000 0.18050  0.65000  0.64570  Biso   1.000  C
  H27      1.0000 0.20730  0.67080  0.67650  Biso   1.000  H
  C43      1.0000 0.88450  0.67310  0.08730  Biso   1.000  C
  H28      1.0000 0.86330  0.66550  0.01980  Biso   1.000  H
  H29      1.0000 0.87060  0.66610  0.17090  Biso   1.000  H
  H30      1.0000 0.90460  0.70340  0.08340  Biso   1.000  H
  C44      1.0000 0.17500  0.64420  0.51900  Biso   1.000  C
  C45      1.0000 0.10490  0.58850  0.56440  Biso   1.000  C
  H31      1.0000 0.07870  0.56680  0.53250  Biso   1.000  H
  C46      1.0000 0.14810  0.62671  0.73630  Biso   1.000  C
  H32      1.0000 0.15260  0.63280  0.82500  Biso   1.000  H
  C47      1.0000 0.13730  0.61330  0.47870  Biso   1.000  C
  H33      1.0000 0.13260  0.60810  0.38950  Biso   1.000  H
  C48      1.0000 0.20990  0.67130  0.42520  Biso   1.000  C
  H34      1.0000 0.23530  0.69110  0.47250  Biso   1.000  H
  H35      1.0000 0.21620  0.65320  0.37140  Biso   1.000  H
  H36      1.0000 0.20070  0.68700  0.37110  Biso   1.000  H
  Sn1      1.0000 0.00000  0.50000  0.00000  Biso   1.000  Sn
  N5       1.0000 0.71265  0.83029  0.22383  Biso   1.000  N
  N6       1.0000 0.64815  0.77373  0.40903  Biso   1.000  N
  C49      1.0000 0.71904  0.73240  0.29103  Biso   1.000  C
  C50      1.0000 0.66668  0.74975  0.38253  Biso   1.000  C
  C51      1.0000 0.75801  0.81014  0.14623  Biso   1.000  C
  H37      1.0000 0.77117  0.79393  0.12973  Biso   1.000  H
  C52      1.0000 0.61621  0.75247  0.49723  Biso   1.000  C
  C53      1.0000 0.70134  0.76148  0.30073  Biso   1.000  C
  C54      1.0000 0.74155  0.86210  0.14453  Biso   1.000  C
  C55      1.0000 0.72238  0.79787  0.22923  Biso   1.000  C
  C56      1.0000 0.76975  0.84854  0.09523  Biso   1.000  C
  H38      1.0000 0.79237  0.86373  0.03743  Biso   1.000  H
  C57      1.0000 0.75905  0.68433  0.26503  Biso   1.000  C
  C58      1.0000 0.76511  0.70831  0.37223  Biso   1.000  C
  H39      1.0000 0.78347  0.70913  0.43773  Biso   1.000  H
  C59      1.0000 0.64427  0.71116  0.45323  Biso   1.000  C
  H40      1.0000 0.64997  0.68863  0.45263  Biso   1.000  H
  C60      1.0000 0.71227  0.70830  0.18103  Biso   1.000  C
  H41      1.0000 0.69447  0.70823  0.11483  Biso   1.000  H
  C61      1.0000 0.61355  0.71260  0.52093  Biso   1.000  C
  H42      1.0000 0.59367  0.69093  0.57493  Biso   1.000  H
  C62      1.0000 0.59038  0.76655  0.54893  Biso   1.000  C
  C63      1.0000 0.55641  0.73819  0.64173  Biso   1.000  C
  C64      1.0000 0.74465  0.73139  0.38603  Biso   1.000  C
  H43      1.0000 0.74837  0.74683  0.46253  Biso   1.000  H
  C65      1.0000 0.73226  0.68403  0.16963  Biso   1.000  C
  H44      1.0000 0.72737  0.66723  0.09553  Biso   1.000  H
  C66      1.0000 0.48617  0.68333  0.68763  Biso   1.000  C
  H45      1.0000 0.45937  0.66253  0.65683  Biso   1.000  H
  C67      1.0000 0.78217  0.66023  0.24603  Biso   1.000  C
  H46      1.0000 0.80337  0.66783  0.31353  Biso   1.000  H
  H47      1.0000 0.79607  0.66723  0.16243  Biso   1.000  H
  H48      1.0000 0.76207  0.62993  0.24993  Biso   1.000  H
  C68      1.0000 0.49167  0.68913  0.81433  Biso   1.000  C
  C69      1.0000 0.56177  0.74483  0.76893  Biso   1.000  C
  H49      1.0000 0.58797  0.76653  0.80083  Biso   1.000  H
  C70      1.0000 0.51857  0.70662  0.59703  Biso   1.000  C
  H50      1.0000 0.51407  0.70053  0.50833  Biso   1.000  H
  C71      1.0000 0.52937  0.72003  0.85463  Biso   1.000  C
  H51      1.0000 0.53407  0.72523  0.94383  Biso   1.000  H
  C72      1.0000 0.45677  0.66203  0.90813  Biso   1.000  C
  H52      1.0000 0.43137  0.64223  0.86083  Biso   1.000  H
  H53      1.0000 0.45047  0.68013  0.96193  Biso   1.000  H
  H54      1.0000 0.46597  0.64633  0.96223  Biso   1.000  H
  N7       1.0000 0.62069  0.83637  0.44283  Biso   1.000  N
  N8       1.0000 0.68519  0.89293  0.25763  Biso   1.000  N
  C73      1.0000 0.61430  0.93426  0.37563  Biso   1.000  C
  C74      1.0000 0.66666  0.91691  0.28413  Biso   1.000  C
  C75      1.0000 0.57533  0.85652  0.52043  Biso   1.000  C
  H55      1.0000 0.56217  0.87273  0.53693  Biso   1.000  H
  C76      1.0000 0.71713  0.91419  0.16943  Biso   1.000  C
  C77      1.0000 0.63200  0.90518  0.36593  Biso   1.000  C
  C78      1.0000 0.59179  0.80456  0.52213  Biso   1.000  C
  C79      1.0000 0.61096  0.86879  0.43743  Biso   1.000  C
  C80      1.0000 0.56359  0.81812  0.57143  Biso   1.000  C
  H56      1.0000 0.54097  0.80293  0.62923  Biso   1.000  H
  C81      1.0000 0.57429  0.98233  0.40163  Biso   1.000  C
  C82      1.0000 0.56823  0.95835  0.29443  Biso   1.000  C
  H57      1.0000 0.54987  0.95753  0.22893  Biso   1.000  H
  C83      1.0000 0.68907  0.95550  0.21343  Biso   1.000  C
  H58      1.0000 0.68337  0.97803  0.21403  Biso   1.000  H
  C84      1.0000 0.62107  0.95836  0.48563  Biso   1.000  C
  H59      1.0000 0.63887  0.95843  0.55183  Biso   1.000  H
  C85      1.0000 0.71979  0.95406  0.14573  Biso   1.000  C
  H60      1.0000 0.73967  0.97573  0.09173  Biso   1.000  H
  C86      1.0000 0.74296  0.90011  0.11773  Biso   1.000  C
  C87      1.0000 0.77693  0.92847  0.02493  Biso   1.000  C
  C88      1.0000 0.58869  0.93527  0.28063  Biso   1.000  C
  H61      1.0000 0.58497  0.91983  0.20413  Biso   1.000  H
  C89      1.0000 0.60108  0.98263  0.49703  Biso   1.000  C
  H62      1.0000 0.60597  0.99943  0.57113  Biso   1.000  H
  C90      1.0000 0.84717  0.98333  0.97903  Biso   1.000  C
  H63      1.0000 0.87397  0.00413  0.00983  Biso   1.000  H
  C91      1.0000 0.55117  0.00643  0.42063  Biso   1.000  C
  H64      1.0000 0.52997  0.99883  0.35313  Biso   1.000  H
  H65      1.0000 0.53727  0.99943  0.50423  Biso   1.000  H
  H66      1.0000 0.57127  0.03673  0.41673  Biso   1.000  H
  C92      1.0000 0.84167  0.97753  0.85233  Biso   1.000  C
  C93      1.0000 0.77157  0.92183  0.89773  Biso   1.000  C
  H67      1.0000 0.74537  0.90013  0.86583  Biso   1.000  H
  C94      1.0000 0.81477  0.96004  0.06963  Biso   1.000  C
  H68      1.0000 0.81927  0.96613  0.15833  Biso   1.000  H
  C95      1.0000 0.80397  0.94663  0.81203  Biso   1.000  C
  H69      1.0000 0.79927  0.94143  0.72283  Biso   1.000  H
  C96      1.0000 0.87657  0.00463  0.75853  Biso   1.000  C
  H70      1.0000 0.90197  0.02443  0.80583  Biso   1.000  H
  H71      1.0000 0.88287  0.98653  0.70473  Biso   1.000  H
  H72      1.0000 0.86737  0.02033  0.70443  Biso   1.000  H
  Sn2      1.0000 0.66667  0.83333  0.33333  Biso   1.000  Sn
  N9       1.0000 0.37931  0.16363  0.55717  Biso   1.000  N
  N10      1.0000 0.31481  0.10707  0.74237  Biso   1.000  N
  C97      1.0000 0.38570  0.06574  0.62437  Biso   1.000  C
  C98      1.0000 0.33334  0.08309  0.71587  Biso   1.000  C
  C99      1.0000 0.42467  0.14348  0.47957  Biso   1.000  C
  H73      1.0000 0.43783  0.12727  0.46307  Biso   1.000  H
  C100     1.0000 0.28287  0.08581  0.83057  Biso   1.000  C
  C101     1.0000 0.36800  0.09482  0.63407  Biso   1.000  C
  C102     1.0000 0.40821  0.19544  0.47787  Biso   1.000  C
  C103     1.0000 0.38904  0.13121  0.56257  Biso   1.000  C
  C104     1.0000 0.43641  0.18188  0.42857  Biso   1.000  C
  H74      1.0000 0.45903  0.19707  0.37077  Biso   1.000  H
  C105     1.0000 0.42571  0.01767  0.59837  Biso   1.000  C
  C106     1.0000 0.43177  0.04165  0.70557  Biso   1.000  C
  H75      1.0000 0.45013  0.04247  0.77107  Biso   1.000  H
  C107     1.0000 0.31093  0.04450  0.78657  Biso   1.000  C
  H76      1.0000 0.31663  0.02197  0.78597  Biso   1.000  H
  C108     1.0000 0.37893  0.04164  0.51437  Biso   1.000  C
  H77      1.0000 0.36113  0.04157  0.44817  Biso   1.000  H
  C109     1.0000 0.28021  0.04594  0.85427  Biso   1.000  C
  H78      1.0000 0.26033  0.02427  0.90827  Biso   1.000  H
  C110     1.0000 0.25704  0.09989  0.88227  Biso   1.000  C
  C111     1.0000 0.22307  0.07153  0.97507  Biso   1.000  C
  C112     1.0000 0.41131  0.06473  0.71937  Biso   1.000  C
  H79      1.0000 0.41503  0.08017  0.79587  Biso   1.000  H
  C113     1.0000 0.39892  0.01737  0.50297  Biso   1.000  C
  H80      1.0000 0.39403  0.00057  0.42887  Biso   1.000  H
  C114     1.0000 0.15283  0.01667  0.02097  Biso   1.000  C
  H81      1.0000 0.12603  0.99587  0.99017  Biso   1.000  H
  C115     1.0000 0.44883  0.99357  0.57937  Biso   1.000  C
  H82      1.0000 0.47003  0.00117  0.64687  Biso   1.000  H
  H83      1.0000 0.46273  0.00057  0.49577  Biso   1.000  H
  H84      1.0000 0.42873  0.96327  0.58327  Biso   1.000  H
  C116     1.0000 0.15833  0.02247  0.14767  Biso   1.000  C
  C117     1.0000 0.22843  0.07817  0.10227  Biso   1.000  C
  H85      1.0000 0.25463  0.09987  0.13417  Biso   1.000  H
  C118     1.0000 0.18523  0.03996  0.93037  Biso   1.000  C
  H86      1.0000 0.18073  0.03387  0.84167  Biso   1.000  H
  C119     1.0000 0.19603  0.05337  0.18797  Biso   1.000  C
  H87      1.0000 0.20073  0.05857  0.27717  Biso   1.000  H
  C120     1.0000 0.12343  0.99537  0.24147  Biso   1.000  C
  H88      1.0000 0.09803  0.97557  0.19417  Biso   1.000  H
  H89      1.0000 0.11713  0.01347  0.29527  Biso   1.000  H
  H90      1.0000 0.13263  0.97967  0.29557  Biso   1.000  H
  N11      1.0000 0.28735  0.16971  0.77617  Biso   1.000  N
  N12      1.0000 0.35185  0.22627  0.59097  Biso   1.000  N
  C121     1.0000 0.28096  0.26760  0.70897  Biso   1.000  C
  C122     1.0000 0.33332  0.25025  0.61747  Biso   1.000  C
  C123     1.0000 0.24199  0.18986  0.85377  Biso   1.000  C
  H91      1.0000 0.22883  0.20607  0.87027  Biso   1.000  H
  C124     1.0000 0.38379  0.24753  0.50277  Biso   1.000  C
  C125     1.0000 0.29866  0.23852  0.69927  Biso   1.000  C
  C126     1.0000 0.25845  0.13790  0.85547  Biso   1.000  C
  C127     1.0000 0.27762  0.20213  0.77077  Biso   1.000  C
  C128     1.0000 0.23025  0.15146  0.90477  Biso   1.000  C
  H92      1.0000 0.20763  0.13627  0.96257  Biso   1.000  H
  C129     1.0000 0.24095  0.31567  0.73497  Biso   1.000  C
  C130     1.0000 0.23489  0.29169  0.62777  Biso   1.000  C
  H93      1.0000 0.21653  0.29087  0.56227  Biso   1.000  H
  C131     1.0000 0.35573  0.28884  0.54677  Biso   1.000  C
  H94      1.0000 0.35003  0.31137  0.54737  Biso   1.000  H
  C132     1.0000 0.28773  0.29170  0.81897  Biso   1.000  C
  H95      1.0000 0.30553  0.29177  0.88517  Biso   1.000  H
  C133     1.0000 0.38645  0.28740  0.47907  Biso   1.000  C
  H96      1.0000 0.40633  0.30907  0.42507  Biso   1.000  H
  C134     1.0000 0.40962  0.23345  0.45107  Biso   1.000  C
  C135     1.0000 0.44359  0.26181  0.35827  Biso   1.000  C
  C136     1.0000 0.25535  0.26861  0.61397  Biso   1.000  C
  H97      1.0000 0.25163  0.25317  0.53747  Biso   1.000  H
  C137     1.0000 0.26774  0.31597  0.83037  Biso   1.000  C
  H98      1.0000 0.27263  0.33277  0.90447  Biso   1.000  H
  C138     1.0000 0.51383  0.31667  0.31237  Biso   1.000  C
  H99      1.0000 0.54063  0.33747  0.34317  Biso   1.000  H
  C139     1.0000 0.21783  0.33977  0.75397  Biso   1.000  C
  H100     1.0000 0.19663  0.33217  0.68647  Biso   1.000  H
  H101     1.0000 0.20393  0.33277  0.83757  Biso   1.000  H
  H102     1.0000 0.23793  0.37007  0.75007  Biso   1.000  H
  C140     1.0000 0.50833  0.31087  0.18567  Biso   1.000  C
  C141     1.0000 0.43823  0.25517  0.23107  Biso   1.000  C
  H103     1.0000 0.41203  0.23347  0.19917  Biso   1.000  H
  C142     1.0000 0.48143  0.29338  0.40297  Biso   1.000  C
  H104     1.0000 0.48593  0.29947  0.49167  Biso   1.000  H
  C143     1.0000 0.47063  0.27997  0.14537  Biso   1.000  C
  H105     1.0000 0.46593  0.27477  0.05617  Biso   1.000  H
  C144     1.0000 0.54323  0.33797  0.09187  Biso   1.000  C
  H106     1.0000 0.56863  0.35777  0.13917  Biso   1.000  H
  H107     1.0000 0.54953  0.31987  0.03807  Biso   1.000  H
  H108     1.0000 0.53403  0.35367  0.03777  Biso   1.000  H
  Sn3      1.0000 0.33333  0.16667  0.66667  Biso   1.000  Sn
  N13      1.0000 0.50304  0.54902  0.89050  Biso   1.000  N
  N14      1.0000 0.55960  0.54108  0.07570  Biso   1.000  N
  C145     1.0000 0.60093  0.65330  0.95770  Biso   1.000  C
  C146     1.0000 0.58358  0.58359  0.04920  Biso   1.000  C
  C147     1.0000 0.52319  0.61453  0.81290  Biso   1.000  C
  H109     1.0000 0.53940  0.64390  0.79640  Biso   1.000  H
  C148     1.0000 0.58086  0.53040  0.16390  Biso   1.000  C
  C149     1.0000 0.57185  0.60652  0.96740  Biso   1.000  C
  C150     1.0000 0.47123  0.54611  0.81120  Biso   1.000  C
  C151     1.0000 0.53546  0.59117  0.89590  Biso   1.000  C
  C152     1.0000 0.48479  0.58787  0.76190  Biso   1.000  C
  H110     1.0000 0.46960  0.59530  0.70410  Biso   1.000  H
  C153     1.0000 0.64900  0.74138  0.93170  Biso   1.000  C
  C154     1.0000 0.62502  0.72346  0.03890  Biso   1.000  C
  H111     1.0000 0.62420  0.74100  0.10440  Biso   1.000  H
  C155     1.0000 0.62217  0.59977  0.11990  Biso   1.000  C
  H112     1.0000 0.64470  0.62800  0.11930  Biso   1.000  H
  C156     1.0000 0.62503  0.67063  0.84770  Biso   1.000  C
  H113     1.0000 0.62510  0.65290  0.78150  Biso   1.000  H
  C157     1.0000 0.62073  0.56761  0.18760  Biso   1.000  C
  H114     1.0000 0.64240  0.56940  0.24160  Biso   1.000  H
  C158     1.0000 0.56678  0.49049  0.21560  Biso   1.000  C
  C159     1.0000 0.59514  0.48488  0.30840  Biso   1.000  C
  C160     1.0000 0.60194  0.67992  0.05270  Biso   1.000  C
  H115     1.0000 0.58650  0.66820  0.12920  Biso   1.000  H
  C161     1.0000 0.64930  0.71489  0.83630  Biso   1.000  C
  H116     1.0000 0.66610  0.72680  0.76220  Biso   1.000  H
  C162     1.0000 0.65000  0.46950  0.35430  Biso   1.000  C
  H117     1.0000 0.67080  0.46350  0.32350  Biso   1.000  H
  C163     1.0000 0.67310  0.78860  0.91270  Biso   1.000  C
  H118     1.0000 0.66550  0.80220  0.98020  Biso   1.000  H
  H119     1.0000 0.66610  0.79550  0.82910  Biso   1.000  H
  H120     1.0000 0.70340  0.79880  0.91660  Biso   1.000  H
  C164     1.0000 0.64420  0.46920  0.48100  Biso   1.000  C
  C165     1.0000 0.58850  0.48360  0.43560  Biso   1.000  C
  H121     1.0000 0.56680  0.48810  0.46750  Biso   1.000  H
  C166     1.0000 0.62671  0.47861  0.26370  Biso   1.000  C
  H122     1.0000 0.63280  0.48020  0.17500  Biso   1.000  H
  C167     1.0000 0.61330  0.47600  0.52130  Biso   1.000  C
  H123     1.0000 0.60810  0.47550  0.61050  Biso   1.000  H
  C168     1.0000 0.67130  0.46140  0.57480  Biso   1.000  C
  H124     1.0000 0.69110  0.45580  0.52750  Biso   1.000  H
  H125     1.0000 0.65320  0.43700  0.62860  Biso   1.000  H
  H126     1.0000 0.68700  0.48630  0.62890  Biso   1.000  H
  N15      1.0000 0.49696  0.45098  0.10950  Biso   1.000  N
  N16      1.0000 0.44040  0.45892  0.92430  Biso   1.000  N
  C169     1.0000 0.39907  0.34670  0.04230  Biso   1.000  C
  C170     1.0000 0.41642  0.41641  0.95080  Biso   1.000  C
  C171     1.0000 0.47681  0.38547  0.18710  Biso   1.000  C
  H127     1.0000 0.46060  0.35610  0.20360  Biso   1.000  H
  C172     1.0000 0.41914  0.46960  0.83610  Biso   1.000  C
  C173     1.0000 0.42815  0.39348  0.03260  Biso   1.000  C
  C174     1.0000 0.52877  0.45389  0.18880  Biso   1.000  C
  C175     1.0000 0.46454  0.40883  0.10410  Biso   1.000  C
  C176     1.0000 0.51521  0.41213  0.23810  Biso   1.000  C
  H128     1.0000 0.53040  0.40470  0.29590  Biso   1.000  H
  C177     1.0000 0.35100  0.25862  0.06830  Biso   1.000  C
  C178     1.0000 0.37498  0.27654  0.96110  Biso   1.000  C
  H129     1.0000 0.37580  0.25900  0.89560  Biso   1.000  H
  C179     1.0000 0.37783  0.40023  0.88010  Biso   1.000  C
  H130     1.0000 0.35530  0.37200  0.88070  Biso   1.000  H
  C180     1.0000 0.37497  0.32937  0.15230  Biso   1.000  C
  H131     1.0000 0.37490  0.34710  0.21850  Biso   1.000  H
  C181     1.0000 0.37927  0.43239  0.81240  Biso   1.000  C
  H132     1.0000 0.35760  0.43060  0.75840  Biso   1.000  H
  C182     1.0000 0.43322  0.50951  0.78440  Biso   1.000  C
  C183     1.0000 0.40486  0.51512  0.69160  Biso   1.000  C
  C184     1.0000 0.39806  0.32008  0.94730  Biso   1.000  C
  H133     1.0000 0.41350  0.33180  0.87080  Biso   1.000  H
  C185     1.0000 0.35070  0.28511  0.16370  Biso   1.000  C
  H134     1.0000 0.33390  0.27320  0.23780  Biso   1.000  H
  C186     1.0000 0.35000  0.53050  0.64570  Biso   1.000  C
  H135     1.0000 0.32920  0.53650  0.67650  Biso   1.000  H
  C187     1.0000 0.32690  0.21140  0.08730  Biso   1.000  C
  H136     1.0000 0.33450  0.19780  0.01980  Biso   1.000  H
  H137     1.0000 0.33390  0.20450  0.17090  Biso   1.000  H
  H138     1.0000 0.29660  0.20120  0.08340  Biso   1.000  H
  C188     1.0000 0.35580  0.53080  0.51900  Biso   1.000  C
  C189     1.0000 0.41150  0.51640  0.56440  Biso   1.000  C
  H139     1.0000 0.43320  0.51190  0.53250  Biso   1.000  H
  C190     1.0000 0.37329  0.52139  0.73630  Biso   1.000  C
  H140     1.0000 0.36720  0.51980  0.82500  Biso   1.000  H
  C191     1.0000 0.38670  0.52400  0.47870  Biso   1.000  C
  H141     1.0000 0.39190  0.52450  0.38950  Biso   1.000  H
  C192     1.0000 0.32870  0.53860  0.42520  Biso   1.000  C
  H142     1.0000 0.30890  0.54420  0.47250  Biso   1.000  H
  H143     1.0000 0.34680  0.56300  0.37140  Biso   1.000  H
  H144     1.0000 0.31300  0.51370  0.37110  Biso   1.000  H
  Sn4      1.0000 0.50000  0.50000  0.00000  Biso   1.000  Sn
  N17      1.0000 0.16971  0.88235  0.22383  Biso   1.000  N
  N18      1.0000 0.22627  0.87441  0.40903  Biso   1.000  N
  C193     1.0000 0.26760  0.98663  0.29103  Biso   1.000  C
  C194     1.0000 0.25025  0.91692  0.38253  Biso   1.000  C
  C195     1.0000 0.18986  0.94786  0.14623  Biso   1.000  C
  H145     1.0000 0.20607  0.97723  0.12973  Biso   1.000  H
  C196     1.0000 0.24753  0.86373  0.49723  Biso   1.000  C
  C197     1.0000 0.23852  0.93985  0.30073  Biso   1.000  C
  C198     1.0000 0.13790  0.87944  0.14453  Biso   1.000  C
  C199     1.0000 0.20213  0.92450  0.22923  Biso   1.000  C
  C200     1.0000 0.15146  0.92120  0.09523  Biso   1.000  C
  H146     1.0000 0.13627  0.92863  0.03743  Biso   1.000  H
  C201     1.0000 0.31567  0.07471  0.26503  Biso   1.000  C
  C202     1.0000 0.29169  0.05679  0.37223  Biso   1.000  C
  H147     1.0000 0.29087  0.07433  0.43773  Biso   1.000  H
  C203     1.0000 0.28884  0.93310  0.45323  Biso   1.000  C
  H148     1.0000 0.31137  0.96133  0.45263  Biso   1.000  H
  C204     1.0000 0.29170  0.00396  0.18103  Biso   1.000  C
  H149     1.0000 0.29177  0.98623  0.11483  Biso   1.000  H
  C205     1.0000 0.28740  0.90094  0.52093  Biso   1.000  C
  H150     1.0000 0.30907  0.90273  0.57493  Biso   1.000  H
  C206     1.0000 0.23345  0.82382  0.54893  Biso   1.000  C
  C207     1.0000 0.26181  0.81821  0.64173  Biso   1.000  C
  C208     1.0000 0.26861  0.01325  0.38603  Biso   1.000  C
  H151     1.0000 0.25317  0.00153  0.46253  Biso   1.000  H
  C209     1.0000 0.31597  0.04822  0.16963  Biso   1.000  C
  H152     1.0000 0.33277  0.06013  0.09553  Biso   1.000  H
  C210     1.0000 0.31667  0.80283  0.68763  Biso   1.000  C
  H153     1.0000 0.33747  0.79683  0.65683  Biso   1.000  H
  C211     1.0000 0.33977  0.12193  0.24603  Biso   1.000  C
  H154     1.0000 0.33217  0.13553  0.31353  Biso   1.000  H
  H155     1.0000 0.33277  0.12883  0.16243  Biso   1.000  H
  H156     1.0000 0.37007  0.13213  0.24993  Biso   1.000  H
  C212     1.0000 0.31087  0.80253  0.81433  Biso   1.000  C
  C213     1.0000 0.25517  0.81693  0.76893  Biso   1.000  C
  H157     1.0000 0.23347  0.82143  0.80083  Biso   1.000  H
  C214     1.0000 0.29338  0.81194  0.59703  Biso   1.000  C
  H158     1.0000 0.29947  0.81353  0.50833  Biso   1.000  H
  C215     1.0000 0.27997  0.80933  0.85463  Biso   1.000  C
  H159     1.0000 0.27477  0.80883  0.94383  Biso   1.000  H
  C216     1.0000 0.33797  0.79473  0.90813  Biso   1.000  C
  H160     1.0000 0.35777  0.78913  0.86083  Biso   1.000  H
  H161     1.0000 0.31987  0.77033  0.96193  Biso   1.000  H
  H162     1.0000 0.35367  0.81963  0.96223  Biso   1.000  H
  N19      1.0000 0.16363  0.78431  0.44283  Biso   1.000  N
  N20      1.0000 0.10707  0.79225  0.25763  Biso   1.000  N
  C217     1.0000 0.06574  0.68003  0.37563  Biso   1.000  C
  C218     1.0000 0.08309  0.74974  0.28413  Biso   1.000  C
  C219     1.0000 0.14348  0.71880  0.52043  Biso   1.000  C
  H163     1.0000 0.12727  0.68943  0.53693  Biso   1.000  H
  C220     1.0000 0.08581  0.80293  0.16943  Biso   1.000  C
  C221     1.0000 0.09482  0.72681  0.36593  Biso   1.000  C
  C222     1.0000 0.19544  0.78722  0.52213  Biso   1.000  C
  C223     1.0000 0.13121  0.74216  0.43743  Biso   1.000  C
  C224     1.0000 0.18188  0.74546  0.57143  Biso   1.000  C
  H164     1.0000 0.19707  0.73803  0.62923  Biso   1.000  H
  C225     1.0000 0.01767  0.59195  0.40163  Biso   1.000  C
  C226     1.0000 0.04165  0.60987  0.29443  Biso   1.000  C
  H165     1.0000 0.04247  0.59233  0.22893  Biso   1.000  H
  C227     1.0000 0.04450  0.73356  0.21343  Biso   1.000  C
  H166     1.0000 0.02197  0.70533  0.21403  Biso   1.000  H
  C228     1.0000 0.04164  0.66270  0.48563  Biso   1.000  C
  H167     1.0000 0.04157  0.68043  0.55183  Biso   1.000  H
  C229     1.0000 0.04594  0.76572  0.14573  Biso   1.000  C
  H168     1.0000 0.02427  0.76393  0.09173  Biso   1.000  H
  C230     1.0000 0.09989  0.84284  0.11773  Biso   1.000  C
  C231     1.0000 0.07153  0.84845  0.02493  Biso   1.000  C
  C232     1.0000 0.06473  0.65341  0.28063  Biso   1.000  C
  H169     1.0000 0.08017  0.66513  0.20413  Biso   1.000  H
  C233     1.0000 0.01737  0.61844  0.49703  Biso   1.000  C
  H170     1.0000 0.00057  0.60653  0.57113  Biso   1.000  H
  C234     1.0000 0.01667  0.86383  0.97903  Biso   1.000  C
  H171     1.0000 0.99587  0.86983  0.00983  Biso   1.000  H
  C235     1.0000 0.99357  0.54473  0.42063  Biso   1.000  C
  H172     1.0000 0.00117  0.53113  0.35313  Biso   1.000  H
  H173     1.0000 0.00057  0.53783  0.50423  Biso   1.000  H
  H174     1.0000 0.96327  0.53453  0.41673  Biso   1.000  H
  C236     1.0000 0.02247  0.86413  0.85233  Biso   1.000  C
  C237     1.0000 0.07817  0.84973  0.89773  Biso   1.000  C
  H175     1.0000 0.09987  0.84523  0.86583  Biso   1.000  H
  C238     1.0000 0.03996  0.85472  0.06963  Biso   1.000  C
  H176     1.0000 0.03387  0.85313  0.15833  Biso   1.000  H
  C239     1.0000 0.05337  0.85733  0.81203  Biso   1.000  C
  H177     1.0000 0.05857  0.85783  0.72283  Biso   1.000  H
  C240     1.0000 0.99537  0.87193  0.75853  Biso   1.000  C
  H178     1.0000 0.97557  0.87753  0.80583  Biso   1.000  H
  H179     1.0000 0.01347  0.89633  0.70473  Biso   1.000  H
  H180     1.0000 0.97967  0.84703  0.70443  Biso   1.000  H
  Sn5      1.0000 0.16667  0.83333  0.33333  Biso   1.000  Sn
  N21      1.0000 0.83637  0.21569  0.55717  Biso   1.000  N
  N22      1.0000 0.89293  0.20775  0.74237  Biso   1.000  N
  C241     1.0000 0.93426  0.31997  0.62437  Biso   1.000  C
  C242     1.0000 0.91691  0.25026  0.71587  Biso   1.000  C
  C243     1.0000 0.85652  0.28120  0.47957  Biso   1.000  C
  H181     1.0000 0.87273  0.31057  0.46307  Biso   1.000  H
  C244     1.0000 0.91419  0.19707  0.83057  Biso   1.000  C
  C245     1.0000 0.90518  0.27319  0.63407  Biso   1.000  C
  C246     1.0000 0.80456  0.21278  0.47787  Biso   1.000  C
  C247     1.0000 0.86879  0.25784  0.56257  Biso   1.000  C
  C248     1.0000 0.81812  0.25454  0.42857  Biso   1.000  C
  H182     1.0000 0.80293  0.26197  0.37077  Biso   1.000  H
  C249     1.0000 0.98233  0.40805  0.59837  Biso   1.000  C
  C250     1.0000 0.95835  0.39013  0.70557  Biso   1.000  C
  H183     1.0000 0.95753  0.40767  0.77107  Biso   1.000  H
  C251     1.0000 0.95550  0.26644  0.78657  Biso   1.000  C
  H184     1.0000 0.97803  0.29467  0.78597  Biso   1.000  H
  C252     1.0000 0.95836  0.33730  0.51437  Biso   1.000  C
  H185     1.0000 0.95843  0.31957  0.44817  Biso   1.000  H
  C253     1.0000 0.95406  0.23428  0.85427  Biso   1.000  C
  H186     1.0000 0.97573  0.23607  0.90827  Biso   1.000  H
  C254     1.0000 0.90011  0.15716  0.88227  Biso   1.000  C
  C255     1.0000 0.92847  0.15155  0.97507  Biso   1.000  C
  C256     1.0000 0.93527  0.34659  0.71937  Biso   1.000  C
  H187     1.0000 0.91983  0.33487  0.79587  Biso   1.000  H
  C257     1.0000 0.98263  0.38156  0.50297  Biso   1.000  C
  H188     1.0000 0.99943  0.39347  0.42887  Biso   1.000  H
  C258     1.0000 0.98333  0.13617  0.02097  Biso   1.000  C
  H189     1.0000 0.00413  0.13017  0.99017  Biso   1.000  H
  C259     1.0000 0.00643  0.45527  0.57937  Biso   1.000  C
  H190     1.0000 0.99883  0.46887  0.64687  Biso   1.000  H
  H191     1.0000 0.99943  0.46217  0.49577  Biso   1.000  H
  H192     1.0000 0.03673  0.46547  0.58327  Biso   1.000  H
  C260     1.0000 0.97753  0.13587  0.14767  Biso   1.000  C
  C261     1.0000 0.92183  0.15027  0.10227  Biso   1.000  C
  H193     1.0000 0.90013  0.15477  0.13417  Biso   1.000  H
  C262     1.0000 0.96004  0.14528  0.93037  Biso   1.000  C
  H194     1.0000 0.96613  0.14687  0.84167  Biso   1.000  H
  C263     1.0000 0.94663  0.14267  0.18797  Biso   1.000  C
  H195     1.0000 0.94143  0.14217  0.27717  Biso   1.000  H
  C264     1.0000 0.00463  0.12807  0.24147  Biso   1.000  C
  H196     1.0000 0.02443  0.12247  0.19417  Biso   1.000  H
  H197     1.0000 0.98653  0.10367  0.29527  Biso   1.000  H
  H198     1.0000 0.02033  0.15297  0.29557  Biso   1.000  H
  N23      1.0000 0.83029  0.11765  0.77617  Biso   1.000  N
  N24      1.0000 0.77373  0.12559  0.59097  Biso   1.000  N
  C265     1.0000 0.73240  0.01337  0.70897  Biso   1.000  C
  C266     1.0000 0.74975  0.08308  0.61747  Biso   1.000  C
  C267     1.0000 0.81014  0.05214  0.85377  Biso   1.000  C
  H199     1.0000 0.79393  0.02277  0.87027  Biso   1.000  H
  C268     1.0000 0.75247  0.13627  0.50277  Biso   1.000  C
  C269     1.0000 0.76148  0.06015  0.69927  Biso   1.000  C
  C270     1.0000 0.86210  0.12056  0.85547  Biso   1.000  C
  C271     1.0000 0.79787  0.07550  0.77077  Biso   1.000  C
  C272     1.0000 0.84854  0.07880  0.90477  Biso   1.000  C
  H200     1.0000 0.86373  0.07137  0.96257  Biso   1.000  H
  C273     1.0000 0.68433  0.92529  0.73497  Biso   1.000  C
  C274     1.0000 0.70831  0.94321  0.62777  Biso   1.000  C
  H201     1.0000 0.70913  0.92567  0.56227  Biso   1.000  H
  C275     1.0000 0.71116  0.06690  0.54677  Biso   1.000  C
  H202     1.0000 0.68863  0.03867  0.54737  Biso   1.000  H
  C276     1.0000 0.70830  0.99604  0.81897  Biso   1.000  C
  H203     1.0000 0.70823  0.01377  0.88517  Biso   1.000  H
  C277     1.0000 0.71260  0.09906  0.47907  Biso   1.000  C
  H204     1.0000 0.69093  0.09727  0.42507  Biso   1.000  H
  C278     1.0000 0.76655  0.17618  0.45107  Biso   1.000  C
  C279     1.0000 0.73819  0.18179  0.35827  Biso   1.000  C
  C280     1.0000 0.73139  0.98675  0.61397  Biso   1.000  C
  H205     1.0000 0.74683  0.99847  0.53747  Biso   1.000  H
  C281     1.0000 0.68403  0.95178  0.83037  Biso   1.000  C
  H206     1.0000 0.66723  0.93987  0.90447  Biso   1.000  H
  C282     1.0000 0.68333  0.19717  0.31237  Biso   1.000  C
  H207     1.0000 0.66253  0.20317  0.34317  Biso   1.000  H
  C283     1.0000 0.66023  0.87807  0.75397  Biso   1.000  C
  H208     1.0000 0.66783  0.86447  0.68647  Biso   1.000  H
  H209     1.0000 0.66723  0.87117  0.83757  Biso   1.000  H
  H210     1.0000 0.62993  0.86787  0.75007  Biso   1.000  H
  C284     1.0000 0.68913  0.19747  0.18567  Biso   1.000  C
  C285     1.0000 0.74483  0.18307  0.23107  Biso   1.000  C
  H211     1.0000 0.76653  0.17857  0.19917  Biso   1.000  H
  C286     1.0000 0.70662  0.18806  0.40297  Biso   1.000  C
  H212     1.0000 0.70053  0.18647  0.49167  Biso   1.000  H
  C287     1.0000 0.72003  0.19067  0.14537  Biso   1.000  C
  H213     1.0000 0.72523  0.19117  0.05617  Biso   1.000  H
  C288     1.0000 0.66203  0.20527  0.09187  Biso   1.000  C
  H214     1.0000 0.64223  0.21087  0.13917  Biso   1.000  H
  H215     1.0000 0.68013  0.22967  0.03807  Biso   1.000  H
  H216     1.0000 0.64633  0.18037  0.03777  Biso   1.000  H
  Sn6      1.0000 0.83333  0.16667  0.66667  Biso   1.000  Sn
  N25      1.0000 0.45098  0.95402  0.89050  Biso   1.000  N
  N26      1.0000 0.45892  0.01852  0.07570  Biso   1.000  N
  C289     1.0000 0.34670  0.94763  0.95770  Biso   1.000  C
  C290     1.0000 0.41641  0.99999  0.04920  Biso   1.000  C
  C291     1.0000 0.38547  0.90866  0.81290  Biso   1.000  C
  H217     1.0000 0.35610  0.89550  0.79640  Biso   1.000  H
  C292     1.0000 0.46960  0.05046  0.16390  Biso   1.000  C
  C293     1.0000 0.39348  0.96533  0.96740  Biso   1.000  C
  C294     1.0000 0.45389  0.92512  0.81120  Biso   1.000  C
  C295     1.0000 0.40883  0.94429  0.89590  Biso   1.000  C
  C296     1.0000 0.41213  0.89692  0.76190  Biso   1.000  C
  H218     1.0000 0.40470  0.87430  0.70410  Biso   1.000  H
  C297     1.0000 0.25862  0.90762  0.93170  Biso   1.000  C
  C298     1.0000 0.27654  0.90156  0.03890  Biso   1.000  C
  H219     1.0000 0.25900  0.88320  0.10440  Biso   1.000  H
  C299     1.0000 0.40023  0.02240  0.11990  Biso   1.000  C
  H220     1.0000 0.37200  0.01670  0.11930  Biso   1.000  H
  C300     1.0000 0.32937  0.95440  0.84770  Biso   1.000  C
  H221     1.0000 0.34710  0.97220  0.78150  Biso   1.000  H
  C301     1.0000 0.43239  0.05312  0.18760  Biso   1.000  C
  H222     1.0000 0.43060  0.07300  0.24160  Biso   1.000  H
  C302     1.0000 0.50951  0.07629  0.21560  Biso   1.000  C
  C303     1.0000 0.51512  0.11026  0.30840  Biso   1.000  C
  C304     1.0000 0.32008  0.92202  0.05270  Biso   1.000  C
  H223     1.0000 0.33180  0.91830  0.12920  Biso   1.000  H
  C305     1.0000 0.28511  0.93441  0.83630  Biso   1.000  C
  H224     1.0000 0.27320  0.93930  0.76220  Biso   1.000  H
  C306     1.0000 0.53050  0.18050  0.35430  Biso   1.000  C
  H225     1.0000 0.53650  0.20730  0.32350  Biso   1.000  H
  C307     1.0000 0.21140  0.88450  0.91270  Biso   1.000  C
  H226     1.0000 0.19780  0.86330  0.98020  Biso   1.000  H
  H227     1.0000 0.20450  0.87060  0.82910  Biso   1.000  H
  H228     1.0000 0.20120  0.90460  0.91660  Biso   1.000  H
  C308     1.0000 0.53080  0.17500  0.48100  Biso   1.000  C
  C309     1.0000 0.51640  0.10490  0.43560  Biso   1.000  C
  H229     1.0000 0.51190  0.07870  0.46750  Biso   1.000  H
  C310     1.0000 0.52139  0.14810  0.26370  Biso   1.000  C
  H230     1.0000 0.51980  0.15260  0.17500  Biso   1.000  H
  C311     1.0000 0.52400  0.13730  0.52130  Biso   1.000  C
  H231     1.0000 0.52450  0.13260  0.61050  Biso   1.000  H
  C312     1.0000 0.53860  0.20990  0.57480  Biso   1.000  C
  H232     1.0000 0.54420  0.23530  0.52750  Biso   1.000  H
  H233     1.0000 0.56300  0.21620  0.62860  Biso   1.000  H
  H234     1.0000 0.51370  0.20070  0.62890  Biso   1.000  H
  N27      1.0000 0.54902  0.04598  0.10950  Biso   1.000  N
  N28      1.0000 0.54108  0.98148  0.92430  Biso   1.000  N
  C313     1.0000 0.65330  0.05237  0.04230  Biso   1.000  C
  C314     1.0000 0.58359  0.00001  0.95080  Biso   1.000  C
  C315     1.0000 0.61453  0.09134  0.18710  Biso   1.000  C
  H235     1.0000 0.64390  0.10450  0.20360  Biso   1.000  H
  C316     1.0000 0.53040  0.94954  0.83610  Biso   1.000  C
  C317     1.0000 0.60652  0.03467  0.03260  Biso   1.000  C
  C318     1.0000 0.54611  0.07488  0.18880  Biso   1.000  C
  C319     1.0000 0.59117  0.05571  0.10410  Biso   1.000  C
  C320     1.0000 0.58787  0.10308  0.23810  Biso   1.000  C
  H236     1.0000 0.59530  0.12570  0.29590  Biso   1.000  H
  C321     1.0000 0.74138  0.09238  0.06830  Biso   1.000  C
  C322     1.0000 0.72346  0.09844  0.96110  Biso   1.000  C
  H237     1.0000 0.74100  0.11680  0.89560  Biso   1.000  H
  C323     1.0000 0.59977  0.97760  0.88010  Biso   1.000  C
  H238     1.0000 0.62800  0.98330  0.88070  Biso   1.000  H
  C324     1.0000 0.67063  0.04560  0.15230  Biso   1.000  C
  H239     1.0000 0.65290  0.02780  0.21850  Biso   1.000  H
  C325     1.0000 0.56761  0.94688  0.81240  Biso   1.000  C
  H240     1.0000 0.56940  0.92700  0.75840  Biso   1.000  H
  C326     1.0000 0.49049  0.92371  0.78440  Biso   1.000  C
  C327     1.0000 0.48488  0.88974  0.69160  Biso   1.000  C
  C328     1.0000 0.67992  0.07798  0.94730  Biso   1.000  C
  H241     1.0000 0.66820  0.08170  0.87080  Biso   1.000  H
  C329     1.0000 0.71489  0.06559  0.16370  Biso   1.000  C
  H242     1.0000 0.72680  0.06070  0.23780  Biso   1.000  H
  C330     1.0000 0.46950  0.81950  0.64570  Biso   1.000  C
  H243     1.0000 0.46350  0.79270  0.67650  Biso   1.000  H
  C331     1.0000 0.78860  0.11550  0.08730  Biso   1.000  C
  H244     1.0000 0.80220  0.13670  0.01980  Biso   1.000  H
  H245     1.0000 0.79550  0.12940  0.17090  Biso   1.000  H
  H246     1.0000 0.79880  0.09540  0.08340  Biso   1.000  H
  C332     1.0000 0.46920  0.82500  0.51900  Biso   1.000  C
  C333     1.0000 0.48360  0.89510  0.56440  Biso   1.000  C
  H247     1.0000 0.48810  0.92130  0.53250  Biso   1.000  H
  C334     1.0000 0.47861  0.85190  0.73630  Biso   1.000  C
  H248     1.0000 0.48020  0.84740  0.82500  Biso   1.000  H
  C335     1.0000 0.47600  0.86270  0.47870  Biso   1.000  C
  H249     1.0000 0.47550  0.86740  0.38950  Biso   1.000  H
  C336     1.0000 0.46140  0.79010  0.42520  Biso   1.000  C
  H250     1.0000 0.45580  0.76470  0.47250  Biso   1.000  H
  H251     1.0000 0.43700  0.78380  0.37140  Biso   1.000  H
  H252     1.0000 0.48630  0.79930  0.37110  Biso   1.000  H
  Sn7      1.0000 0.50000  0.00000  0.00000  Biso   1.000  Sn
  N29      1.0000 0.11765  0.28735  0.22383  Biso   1.000  N
  N30      1.0000 0.12559  0.35185  0.40903  Biso   1.000  N
  C337     1.0000 0.01337  0.28096  0.29103  Biso   1.000  C
  C338     1.0000 0.08308  0.33332  0.38253  Biso   1.000  C
  C339     1.0000 0.05214  0.24199  0.14623  Biso   1.000  C
  H253     1.0000 0.02277  0.22883  0.12973  Biso   1.000  H
  C340     1.0000 0.13627  0.38379  0.49723  Biso   1.000  C
  C341     1.0000 0.06015  0.29866  0.30073  Biso   1.000  C
  C342     1.0000 0.12056  0.25845  0.14453  Biso   1.000  C
  C343     1.0000 0.07550  0.27762  0.22923  Biso   1.000  C
  C344     1.0000 0.07880  0.23025  0.09523  Biso   1.000  C
  H254     1.0000 0.07137  0.20763  0.03743  Biso   1.000  H
  C345     1.0000 0.92529  0.24095  0.26503  Biso   1.000  C
  C346     1.0000 0.94321  0.23489  0.37223  Biso   1.000  C
  H255     1.0000 0.92567  0.21653  0.43773  Biso   1.000  H
  C347     1.0000 0.06690  0.35573  0.45323  Biso   1.000  C
  H256     1.0000 0.03867  0.35003  0.45263  Biso   1.000  H
  C348     1.0000 0.99604  0.28773  0.18103  Biso   1.000  C
  H257     1.0000 0.01377  0.30553  0.11483  Biso   1.000  H
  C349     1.0000 0.09906  0.38645  0.52093  Biso   1.000  C
  H258     1.0000 0.09727  0.40633  0.57493  Biso   1.000  H
  C350     1.0000 0.17618  0.40962  0.54893  Biso   1.000  C
  C351     1.0000 0.18179  0.44359  0.64173  Biso   1.000  C
  C352     1.0000 0.98675  0.25535  0.38603  Biso   1.000  C
  H259     1.0000 0.99847  0.25163  0.46253  Biso   1.000  H
  C353     1.0000 0.95178  0.26774  0.16963  Biso   1.000  C
  H260     1.0000 0.93987  0.27263  0.09553  Biso   1.000  H
  C354     1.0000 0.19717  0.51383  0.68763  Biso   1.000  C
  H261     1.0000 0.20317  0.54063  0.65683  Biso   1.000  H
  C355     1.0000 0.87807  0.21783  0.24603  Biso   1.000  C
  H262     1.0000 0.86447  0.19663  0.31353  Biso   1.000  H
  H263     1.0000 0.87117  0.20393  0.16243  Biso   1.000  H
  H264     1.0000 0.86787  0.23793  0.24993  Biso   1.000  H
  C356     1.0000 0.19747  0.50833  0.81433  Biso   1.000  C
  C357     1.0000 0.18307  0.43823  0.76893  Biso   1.000  C
  H265     1.0000 0.17857  0.41203  0.80083  Biso   1.000  H
  C358     1.0000 0.18806  0.48143  0.59703  Biso   1.000  C
  H266     1.0000 0.18647  0.48593  0.50833  Biso   1.000  H
  C359     1.0000 0.19067  0.47063  0.85463  Biso   1.000  C
  H267     1.0000 0.19117  0.46593  0.94383  Biso   1.000  H
  C360     1.0000 0.20527  0.54323  0.90813  Biso   1.000  C
  H268     1.0000 0.21087  0.56863  0.86083  Biso   1.000  H
  H269     1.0000 0.22967  0.54953  0.96193  Biso   1.000  H
  H270     1.0000 0.18037  0.53403  0.96223  Biso   1.000  H
  N31      1.0000 0.21569  0.37931  0.44283  Biso   1.000  N
  N32      1.0000 0.20775  0.31481  0.25763  Biso   1.000  N
  C361     1.0000 0.31997  0.38570  0.37563  Biso   1.000  C
  C362     1.0000 0.25026  0.33334  0.28413  Biso   1.000  C
  C363     1.0000 0.28120  0.42467  0.52043  Biso   1.000  C
  H271     1.0000 0.31057  0.43783  0.53693  Biso   1.000  H
  C364     1.0000 0.19707  0.28287  0.16943  Biso   1.000  C
  C365     1.0000 0.27319  0.36800  0.36593  Biso   1.000  C
  C366     1.0000 0.21278  0.40821  0.52213  Biso   1.000  C
  C367     1.0000 0.25784  0.38904  0.43743  Biso   1.000  C
  C368     1.0000 0.25454  0.43641  0.57143  Biso   1.000  C
  H272     1.0000 0.26197  0.45903  0.62923  Biso   1.000  H
  C369     1.0000 0.40805  0.42571  0.40163  Biso   1.000  C
  C370     1.0000 0.39013  0.43177  0.29443  Biso   1.000  C
  H273     1.0000 0.40767  0.45013  0.22893  Biso   1.000  H
  C371     1.0000 0.26644  0.31093  0.21343  Biso   1.000  C
  H274     1.0000 0.29467  0.31663  0.21403  Biso   1.000  H
  C372     1.0000 0.33730  0.37893  0.48563  Biso   1.000  C
  H275     1.0000 0.31957  0.36113  0.55183  Biso   1.000  H
  C373     1.0000 0.23428  0.28021  0.14573  Biso   1.000  C
  H276     1.0000 0.23607  0.26033  0.09173  Biso   1.000  H
  C374     1.0000 0.15716  0.25704  0.11773  Biso   1.000  C
  C375     1.0000 0.15155  0.22307  0.02493  Biso   1.000  C
  C376     1.0000 0.34659  0.41131  0.28063  Biso   1.000  C
  H277     1.0000 0.33487  0.41503  0.20413  Biso   1.000  H
  C377     1.0000 0.38156  0.39892  0.49703  Biso   1.000  C
  H278     1.0000 0.39347  0.39403  0.57113  Biso   1.000  H
  C378     1.0000 0.13617  0.15283  0.97903  Biso   1.000  C
  H279     1.0000 0.13017  0.12603  0.00983  Biso   1.000  H
  C379     1.0000 0.45527  0.44883  0.42063  Biso   1.000  C
  H280     1.0000 0.46887  0.47003  0.35313  Biso   1.000  H
  H281     1.0000 0.46217  0.46273  0.50423  Biso   1.000  H
  H282     1.0000 0.46547  0.42873  0.41673  Biso   1.000  H
  C380     1.0000 0.13587  0.15833  0.85233  Biso   1.000  C
  C381     1.0000 0.15027  0.22843  0.89773  Biso   1.000  C
  H283     1.0000 0.15477  0.25463  0.86583  Biso   1.000  H
  C382     1.0000 0.14528  0.18523  0.06963  Biso   1.000  C
  H284     1.0000 0.14687  0.18073  0.15833  Biso   1.000  H
  C383     1.0000 0.14267  0.19603  0.81203  Biso   1.000  C
  H285     1.0000 0.14217  0.20073  0.72283  Biso   1.000  H
  C384     1.0000 0.12807  0.12343  0.75853  Biso   1.000  C
  H286     1.0000 0.12247  0.09803  0.80583  Biso   1.000  H
  H287     1.0000 0.10367  0.11713  0.70473  Biso   1.000  H
  H288     1.0000 0.15297  0.13263  0.70443  Biso   1.000  H
  Sn8      1.0000 0.16667  0.33333  0.33333  Biso   1.000  Sn
  N33      1.0000 0.78431  0.62069  0.55717  Biso   1.000  N
  N34      1.0000 0.79225  0.68519  0.74237  Biso   1.000  N
  C385     1.0000 0.68003  0.61430  0.62437  Biso   1.000  C
  C386     1.0000 0.74974  0.66666  0.71587  Biso   1.000  C
  C387     1.0000 0.71880  0.57533  0.47957  Biso   1.000  C
  H289     1.0000 0.68943  0.56217  0.46307  Biso   1.000  H
  C388     1.0000 0.80293  0.71713  0.83057  Biso   1.000  C
  C389     1.0000 0.72681  0.63200  0.63407  Biso   1.000  C
  C390     1.0000 0.78722  0.59179  0.47787  Biso   1.000  C
  C391     1.0000 0.74216  0.61096  0.56257  Biso   1.000  C
  C392     1.0000 0.74546  0.56359  0.42857  Biso   1.000  C
  H290     1.0000 0.73803  0.54097  0.37077  Biso   1.000  H
  C393     1.0000 0.59195  0.57429  0.59837  Biso   1.000  C
  C394     1.0000 0.60987  0.56823  0.70557  Biso   1.000  C
  H291     1.0000 0.59233  0.54987  0.77107  Biso   1.000  H
  C395     1.0000 0.73356  0.68907  0.78657  Biso   1.000  C
  H292     1.0000 0.70533  0.68337  0.78597  Biso   1.000  H
  C396     1.0000 0.66270  0.62107  0.51437  Biso   1.000  C
  H293     1.0000 0.68043  0.63887  0.44817  Biso   1.000  H
  C397     1.0000 0.76572  0.71979  0.85427  Biso   1.000  C
  H294     1.0000 0.76393  0.73967  0.90827  Biso   1.000  H
  C398     1.0000 0.84284  0.74296  0.88227  Biso   1.000  C
  C399     1.0000 0.84845  0.77693  0.97507  Biso   1.000  C
  C400     1.0000 0.65341  0.58869  0.71937  Biso   1.000  C
  H295     1.0000 0.66513  0.58497  0.79587  Biso   1.000  H
  C401     1.0000 0.61844  0.60108  0.50297  Biso   1.000  C
  H296     1.0000 0.60653  0.60597  0.42887  Biso   1.000  H
  C402     1.0000 0.86383  0.84717  0.02097  Biso   1.000  C
  H297     1.0000 0.86983  0.87397  0.99017  Biso   1.000  H
  C403     1.0000 0.54473  0.55117  0.57937  Biso   1.000  C
  H298     1.0000 0.53113  0.52997  0.64687  Biso   1.000  H
  H299     1.0000 0.53783  0.53727  0.49577  Biso   1.000  H
  H300     1.0000 0.53453  0.57127  0.58327  Biso   1.000  H
  C404     1.0000 0.86413  0.84167  0.14767  Biso   1.000  C
  C405     1.0000 0.84973  0.77157  0.10227  Biso   1.000  C
  H301     1.0000 0.84523  0.74537  0.13417  Biso   1.000  H
  C406     1.0000 0.85472  0.81477  0.93037  Biso   1.000  C
  H302     1.0000 0.85313  0.81927  0.84167  Biso   1.000  H
  C407     1.0000 0.85733  0.80397  0.18797  Biso   1.000  C
  H303     1.0000 0.85783  0.79927  0.27717  Biso   1.000  H
  C408     1.0000 0.87193  0.87657  0.24147  Biso   1.000  C
  H304     1.0000 0.87753  0.90197  0.19417  Biso   1.000  H
  H305     1.0000 0.89633  0.88287  0.29527  Biso   1.000  H
  H306     1.0000 0.84703  0.86737  0.29557  Biso   1.000  H
  N35      1.0000 0.88235  0.71265  0.77617  Biso   1.000  N
  N36      1.0000 0.87441  0.64815  0.59097  Biso   1.000  N
  C409     1.0000 0.98663  0.71904  0.70897  Biso   1.000  C
  C410     1.0000 0.91692  0.66668  0.61747  Biso   1.000  C
  C411     1.0000 0.94786  0.75801  0.85377  Biso   1.000  C
  H307     1.0000 0.97723  0.77117  0.87027  Biso   1.000  H
  C412     1.0000 0.86373  0.61621  0.50277  Biso   1.000  C
  C413     1.0000 0.93985  0.70134  0.69927  Biso   1.000  C
  C414     1.0000 0.87944  0.74155  0.85547  Biso   1.000  C
  C415     1.0000 0.92450  0.72238  0.77077  Biso   1.000  C
  C416     1.0000 0.92120  0.76975  0.90477  Biso   1.000  C
  H308     1.0000 0.92863  0.79237  0.96257  Biso   1.000  H
  C417     1.0000 0.07471  0.75905  0.73497  Biso   1.000  C
  C418     1.0000 0.05679  0.76511  0.62777  Biso   1.000  C
  H309     1.0000 0.07433  0.78347  0.56227  Biso   1.000  H
  C419     1.0000 0.93310  0.64427  0.54677  Biso   1.000  C
  H310     1.0000 0.96133  0.64997  0.54737  Biso   1.000  H
  C420     1.0000 0.00396  0.71227  0.81897  Biso   1.000  C
  H311     1.0000 0.98623  0.69447  0.88517  Biso   1.000  H
  C421     1.0000 0.90094  0.61355  0.47907  Biso   1.000  C
  H312     1.0000 0.90273  0.59367  0.42507  Biso   1.000  H
  C422     1.0000 0.82382  0.59038  0.45107  Biso   1.000  C
  C423     1.0000 0.81821  0.55641  0.35827  Biso   1.000  C
  C424     1.0000 0.01325  0.74465  0.61397  Biso   1.000  C
  H313     1.0000 0.00153  0.74837  0.53747  Biso   1.000  H
  C425     1.0000 0.04822  0.73226  0.83037  Biso   1.000  C
  H314     1.0000 0.06013  0.72737  0.90447  Biso   1.000  H
  C426     1.0000 0.80283  0.48617  0.31237  Biso   1.000  C
  H315     1.0000 0.79683  0.45937  0.34317  Biso   1.000  H
  C427     1.0000 0.12193  0.78217  0.75397  Biso   1.000  C
  H316     1.0000 0.13553  0.80337  0.68647  Biso   1.000  H
  H317     1.0000 0.12883  0.79607  0.83757  Biso   1.000  H
  H318     1.0000 0.13213  0.76207  0.75007  Biso   1.000  H
  C428     1.0000 0.80253  0.49167  0.18567  Biso   1.000  C
  C429     1.0000 0.81693  0.56177  0.23107  Biso   1.000  C
  H319     1.0000 0.82143  0.58797  0.19917  Biso   1.000  H
  C430     1.0000 0.81194  0.51857  0.40297  Biso   1.000  C
  H320     1.0000 0.81353  0.51407  0.49167  Biso   1.000  H
  C431     1.0000 0.80933  0.52937  0.14537  Biso   1.000  C
  H321     1.0000 0.80883  0.53407  0.05617  Biso   1.000  H
  C432     1.0000 0.79473  0.45677  0.09187  Biso   1.000  C
  H322     1.0000 0.78913  0.43137  0.13917  Biso   1.000  H
  H323     1.0000 0.77033  0.45047  0.03807  Biso   1.000  H
  H324     1.0000 0.81963  0.46597  0.03777  Biso   1.000  H
  Sn9      1.0000 0.83333  0.66667  0.66667  Biso   1.000  Sn
