data_image0
_cell_length_a       27.9705
_cell_length_b       27.9705
_cell_length_c       27.9705
_cell_angle_alpha    90
_cell_angle_beta     90
_cell_angle_gamma    90

_symmetry_space_group_name_H-M    "P 1"
_symmetry_int_tables_number       1

loop_
  _symmetry_equiv_pos_as_xyz
  'x, y, z'

loop_
  _atom_site_label
  _atom_site_occupancy
  _atom_site_fract_x
  _atom_site_fract_y
  _atom_site_fract_z
  _atom_site_thermal_displace_type
  _atom_site_B_iso_or_equiv
  _atom_site_type_symbol
  C1       1.0000 0.24670  0.43850  0.67760  Biso   1.000  C
  C2       1.0000 0.28300  0.40600  0.69300  Biso   1.000  C
  H1       1.0000 0.27900  0.37320  0.68940  Biso   1.000  H
  C3       1.0000 0.32430  0.42440  0.71340  Biso   1.000  C
  H2       1.0000 0.34800  0.40360  0.72380  Biso   1.000  H
  C4       1.0000 0.29540  0.50390  0.70300  Biso   1.000  C
  H3       1.0000 0.30020  0.53680  0.70500  Biso   1.000  H
  C5       1.0000 0.33080  0.47300  0.71870  Biso   1.000  C
  C6       1.0000 0.25360  0.48710  0.68460  Biso   1.000  C
  H4       1.0000 0.22930  0.50840  0.67670  Biso   1.000  H
  H5       1.0000 0.37310  0.48660  0.77610  Biso   1.000  H
  C7       1.0000 0.20360  0.41970  0.65390  Biso   1.000  C
  O1       1.0000 0.16640  0.44630  0.65240  Biso   1.000  O
  O2       1.0000 0.20160  0.37790  0.63650  Biso   1.000  O
  C8       1.0000 0.24670  0.93850  0.17760  Biso   1.000  C
  C9       1.0000 0.28300  0.90600  0.19300  Biso   1.000  C
  H6       1.0000 0.27900  0.87320  0.18940  Biso   1.000  H
  C10      1.0000 0.32430  0.92440  0.21340  Biso   1.000  C
  H7       1.0000 0.34800  0.90360  0.22380  Biso   1.000  H
  C11      1.0000 0.29540  0.00390  0.20300  Biso   1.000  C
  H8       1.0000 0.30020  0.03680  0.20500  Biso   1.000  H
  C12      1.0000 0.33080  0.97300  0.21870  Biso   1.000  C
  C13      1.0000 0.25360  0.98710  0.18460  Biso   1.000  C
  H9       1.0000 0.22930  0.00840  0.17670  Biso   1.000  H
  H10      1.0000 0.37310  0.98660  0.27610  Biso   1.000  H
  C14      1.0000 0.20360  0.91970  0.15390  Biso   1.000  C
  O3       1.0000 0.16640  0.94630  0.15240  Biso   1.000  O
  O4       1.0000 0.20160  0.87790  0.13650  Biso   1.000  O
  C15      1.0000 0.74670  0.43850  0.17760  Biso   1.000  C
  C16      1.0000 0.78300  0.40600  0.19300  Biso   1.000  C
  H11      1.0000 0.77900  0.37320  0.18940  Biso   1.000  H
  C17      1.0000 0.82430  0.42440  0.21340  Biso   1.000  C
  H12      1.0000 0.84800  0.40360  0.22380  Biso   1.000  H
  C18      1.0000 0.79540  0.50390  0.20300  Biso   1.000  C
  H13      1.0000 0.80020  0.53680  0.20500  Biso   1.000  H
  C19      1.0000 0.83080  0.47300  0.21870  Biso   1.000  C
  C20      1.0000 0.75360  0.48710  0.18460  Biso   1.000  C
  H14      1.0000 0.72930  0.50840  0.17670  Biso   1.000  H
  H15      1.0000 0.87310  0.48660  0.27610  Biso   1.000  H
  C21      1.0000 0.70360  0.41970  0.15390  Biso   1.000  C
  O5       1.0000 0.66640  0.44630  0.15240  Biso   1.000  O
  O6       1.0000 0.70160  0.37790  0.13650  Biso   1.000  O
  C22      1.0000 0.74670  0.93850  0.67760  Biso   1.000  C
  C23      1.0000 0.78300  0.90600  0.69300  Biso   1.000  C
  H16      1.0000 0.77900  0.87320  0.68940  Biso   1.000  H
  C24      1.0000 0.82430  0.92440  0.71340  Biso   1.000  C
  H17      1.0000 0.84800  0.90360  0.72380  Biso   1.000  H
  C25      1.0000 0.79540  0.00390  0.70300  Biso   1.000  C
  H18      1.0000 0.80020  0.03680  0.70500  Biso   1.000  H
  C26      1.0000 0.83080  0.97300  0.71870  Biso   1.000  C
  C27      1.0000 0.75360  0.98710  0.68460  Biso   1.000  C
  H19      1.0000 0.72930  0.00840  0.67670  Biso   1.000  H
  H20      1.0000 0.87310  0.98660  0.77610  Biso   1.000  H
  C28      1.0000 0.70360  0.91970  0.65390  Biso   1.000  C
  O7       1.0000 0.66640  0.94630  0.65240  Biso   1.000  O
  O8       1.0000 0.70160  0.87790  0.63650  Biso   1.000  O
  C29      1.0000 0.17760  0.75330  0.06150  Biso   1.000  C
  C30      1.0000 0.19300  0.71700  0.09400  Biso   1.000  C
  H21      1.0000 0.18940  0.72100  0.12680  Biso   1.000  H
  C31      1.0000 0.21340  0.67570  0.07560  Biso   1.000  C
  H22      1.0000 0.22380  0.65200  0.09640  Biso   1.000  H
  C32      1.0000 0.20300  0.70460  0.99610  Biso   1.000  C
  H23      1.0000 0.20500  0.69980  0.96320  Biso   1.000  H
  C33      1.0000 0.21870  0.66920  0.02700  Biso   1.000  C
  C34      1.0000 0.18460  0.74640  0.01290  Biso   1.000  C
  H24      1.0000 0.17670  0.77070  0.99160  Biso   1.000  H
  H25      1.0000 0.27610  0.62690  0.01340  Biso   1.000  H
  C35      1.0000 0.15390  0.79640  0.08030  Biso   1.000  C
  O9       1.0000 0.15240  0.83360  0.05370  Biso   1.000  O
  O10      1.0000 0.13650  0.79840  0.12210  Biso   1.000  O
  C36      1.0000 0.17760  0.25330  0.56150  Biso   1.000  C
  C37      1.0000 0.19300  0.21700  0.59400  Biso   1.000  C
  H26      1.0000 0.18940  0.22100  0.62680  Biso   1.000  H
  C38      1.0000 0.21340  0.17570  0.57560  Biso   1.000  C
  H27      1.0000 0.22380  0.15200  0.59640  Biso   1.000  H
  C39      1.0000 0.20300  0.20460  0.49610  Biso   1.000  C
  H28      1.0000 0.20500  0.19980  0.46320  Biso   1.000  H
  C40      1.0000 0.21870  0.16920  0.52700  Biso   1.000  C
  C41      1.0000 0.18460  0.24640  0.51290  Biso   1.000  C
  H29      1.0000 0.17670  0.27070  0.49160  Biso   1.000  H
  H30      1.0000 0.27610  0.12690  0.51340  Biso   1.000  H
  C42      1.0000 0.15390  0.29640  0.58030  Biso   1.000  C
  O11      1.0000 0.15240  0.33360  0.55370  Biso   1.000  O
  O12      1.0000 0.13650  0.29840  0.62210  Biso   1.000  O
  C43      1.0000 0.67760  0.75330  0.56150  Biso   1.000  C
  C44      1.0000 0.69300  0.71700  0.59400  Biso   1.000  C
  H31      1.0000 0.68940  0.72100  0.62680  Biso   1.000  H
  C45      1.0000 0.71340  0.67570  0.57560  Biso   1.000  C
  H32      1.0000 0.72380  0.65200  0.59640  Biso   1.000  H
  C46      1.0000 0.70300  0.70460  0.49610  Biso   1.000  C
  H33      1.0000 0.70500  0.69980  0.46320  Biso   1.000  H
  C47      1.0000 0.71870  0.66920  0.52700  Biso   1.000  C
  C48      1.0000 0.68460  0.74640  0.51290  Biso   1.000  C
  H34      1.0000 0.67670  0.77070  0.49160  Biso   1.000  H
  H35      1.0000 0.77610  0.62690  0.51340  Biso   1.000  H
  C49      1.0000 0.65390  0.79640  0.58030  Biso   1.000  C
  O13      1.0000 0.65240  0.83360  0.55370  Biso   1.000  O
  O14      1.0000 0.63650  0.79840  0.62210  Biso   1.000  O
  C50      1.0000 0.67760  0.25330  0.06150  Biso   1.000  C
  C51      1.0000 0.69300  0.21700  0.09400  Biso   1.000  C
  H36      1.0000 0.68940  0.22100  0.12680  Biso   1.000  H
  C52      1.0000 0.71340  0.17570  0.07560  Biso   1.000  C
  H37      1.0000 0.72380  0.15200  0.09640  Biso   1.000  H
  C53      1.0000 0.70300  0.20460  0.99610  Biso   1.000  C
  H38      1.0000 0.70500  0.19980  0.96320  Biso   1.000  H
  C54      1.0000 0.71870  0.16920  0.02700  Biso   1.000  C
  C55      1.0000 0.68460  0.24640  0.01290  Biso   1.000  C
  H39      1.0000 0.67670  0.27070  0.99160  Biso   1.000  H
  H40      1.0000 0.77610  0.12690  0.01340  Biso   1.000  H
  C56      1.0000 0.65390  0.29640  0.08030  Biso   1.000  C
  O15      1.0000 0.65240  0.33360  0.05370  Biso   1.000  O
  O16      1.0000 0.63650  0.29840  0.12210  Biso   1.000  O
  C57      1.0000 0.56150  0.82240  0.74670  Biso   1.000  C
  C58      1.0000 0.59400  0.80700  0.78300  Biso   1.000  C
  H41      1.0000 0.62680  0.81060  0.77900  Biso   1.000  H
  C59      1.0000 0.57560  0.78660  0.82430  Biso   1.000  C
  H42      1.0000 0.59640  0.77620  0.84800  Biso   1.000  H
  C60      1.0000 0.49610  0.79700  0.79540  Biso   1.000  C
  H43      1.0000 0.46320  0.79500  0.80020  Biso   1.000  H
  C61      1.0000 0.52700  0.78130  0.83080  Biso   1.000  C
  C62      1.0000 0.51290  0.81540  0.75360  Biso   1.000  C
  H44      1.0000 0.49160  0.82330  0.72930  Biso   1.000  H
  H45      1.0000 0.51340  0.72390  0.87310  Biso   1.000  H
  C63      1.0000 0.58030  0.84610  0.70360  Biso   1.000  C
  O17      1.0000 0.55370  0.84760  0.66640  Biso   1.000  O
  O18      1.0000 0.62210  0.86350  0.70160  Biso   1.000  O
  C64      1.0000 0.56150  0.32240  0.24670  Biso   1.000  C
  C65      1.0000 0.59400  0.30700  0.28300  Biso   1.000  C
  H46      1.0000 0.62680  0.31060  0.27900  Biso   1.000  H
  C66      1.0000 0.57560  0.28660  0.32430  Biso   1.000  C
  H47      1.0000 0.59640  0.27620  0.34800  Biso   1.000  H
  C67      1.0000 0.49610  0.29700  0.29540  Biso   1.000  C
  H48      1.0000 0.46320  0.29500  0.30020  Biso   1.000  H
  C68      1.0000 0.52700  0.28130  0.33080  Biso   1.000  C
  C69      1.0000 0.51290  0.31540  0.25360  Biso   1.000  C
  H49      1.0000 0.49160  0.32330  0.22930  Biso   1.000  H
  H50      1.0000 0.51340  0.22390  0.37310  Biso   1.000  H
  C70      1.0000 0.58030  0.34610  0.20360  Biso   1.000  C
  O19      1.0000 0.55370  0.34760  0.16640  Biso   1.000  O
  O20      1.0000 0.62210  0.36350  0.20160  Biso   1.000  O
  C71      1.0000 0.06150  0.82240  0.24670  Biso   1.000  C
  C72      1.0000 0.09400  0.80700  0.28300  Biso   1.000  C
  H51      1.0000 0.12680  0.81060  0.27900  Biso   1.000  H
  C73      1.0000 0.07560  0.78660  0.32430  Biso   1.000  C
  H52      1.0000 0.09640  0.77620  0.34800  Biso   1.000  H
  C74      1.0000 0.99610  0.79700  0.29540  Biso   1.000  C
  H53      1.0000 0.96320  0.79500  0.30020  Biso   1.000  H
  C75      1.0000 0.02700  0.78130  0.33080  Biso   1.000  C
  C76      1.0000 0.01290  0.81540  0.25360  Biso   1.000  C
  H54      1.0000 0.99160  0.82330  0.22930  Biso   1.000  H
  H55      1.0000 0.01340  0.72390  0.37310  Biso   1.000  H
  C77      1.0000 0.08030  0.84610  0.20360  Biso   1.000  C
  O21      1.0000 0.05370  0.84760  0.16640  Biso   1.000  O
  O22      1.0000 0.12210  0.86350  0.20160  Biso   1.000  O
  C78      1.0000 0.06150  0.32240  0.74670  Biso   1.000  C
  C79      1.0000 0.09400  0.30700  0.78300  Biso   1.000  C
  H56      1.0000 0.12680  0.31060  0.77900  Biso   1.000  H
  C80      1.0000 0.07560  0.28660  0.82430  Biso   1.000  C
  H57      1.0000 0.09640  0.27620  0.84800  Biso   1.000  H
  C81      1.0000 0.99610  0.29700  0.79540  Biso   1.000  C
  H58      1.0000 0.96320  0.29500  0.80020  Biso   1.000  H
  C82      1.0000 0.02700  0.28130  0.83080  Biso   1.000  C
  C83      1.0000 0.01290  0.31540  0.75360  Biso   1.000  C
  H59      1.0000 0.99160  0.32330  0.72930  Biso   1.000  H
  H60      1.0000 0.01340  0.22390  0.87310  Biso   1.000  H
  C84      1.0000 0.08030  0.34610  0.70360  Biso   1.000  C
  O23      1.0000 0.05370  0.34760  0.66640  Biso   1.000  O
  O24      1.0000 0.12210  0.36350  0.70160  Biso   1.000  O
  C85      1.0000 0.18850  0.49670  0.07240  Biso   1.000  C
  C86      1.0000 0.15600  0.53300  0.05700  Biso   1.000  C
  H61      1.0000 0.12320  0.52900  0.06060  Biso   1.000  H
  C87      1.0000 0.17440  0.57430  0.03660  Biso   1.000  C
  H62      1.0000 0.15360  0.59800  0.02620  Biso   1.000  H
  C88      1.0000 0.25390  0.54540  0.04700  Biso   1.000  C
  H63      1.0000 0.28680  0.55020  0.04500  Biso   1.000  H
  C89      1.0000 0.22300  0.58080  0.03130  Biso   1.000  C
  C90      1.0000 0.23710  0.50360  0.06540  Biso   1.000  C
  H64      1.0000 0.25840  0.47930  0.07330  Biso   1.000  H
  H65      1.0000 0.23660  0.62310  0.97390  Biso   1.000  H
  C91      1.0000 0.16970  0.45360  0.09610  Biso   1.000  C
  O25      1.0000 0.19630  0.41640  0.09760  Biso   1.000  O
  O26      1.0000 0.12790  0.45160  0.11350  Biso   1.000  O
  C92      1.0000 0.18850  0.99670  0.57240  Biso   1.000  C
  C93      1.0000 0.15600  0.03300  0.55700  Biso   1.000  C
  H66      1.0000 0.12320  0.02900  0.56060  Biso   1.000  H
  C94      1.0000 0.17440  0.07430  0.53660  Biso   1.000  C
  H67      1.0000 0.15360  0.09800  0.52620  Biso   1.000  H
  C95      1.0000 0.25390  0.04540  0.54700  Biso   1.000  C
  H68      1.0000 0.28680  0.05020  0.54500  Biso   1.000  H
  C96      1.0000 0.22300  0.08080  0.53130  Biso   1.000  C
  C97      1.0000 0.23710  0.00360  0.56540  Biso   1.000  C
  H69      1.0000 0.25840  0.97930  0.57330  Biso   1.000  H
  H70      1.0000 0.23660  0.12310  0.47390  Biso   1.000  H
  C98      1.0000 0.16970  0.95360  0.59610  Biso   1.000  C
  O27      1.0000 0.19630  0.91640  0.59760  Biso   1.000  O
  O28      1.0000 0.12790  0.95160  0.61350  Biso   1.000  O
  C99      1.0000 0.68850  0.49670  0.57240  Biso   1.000  C
  C100     1.0000 0.65600  0.53300  0.55700  Biso   1.000  C
  H71      1.0000 0.62320  0.52900  0.56060  Biso   1.000  H
  C101     1.0000 0.67440  0.57430  0.53660  Biso   1.000  C
  H72      1.0000 0.65360  0.59800  0.52620  Biso   1.000  H
  C102     1.0000 0.75390  0.54540  0.54700  Biso   1.000  C
  H73      1.0000 0.78680  0.55020  0.54500  Biso   1.000  H
  C103     1.0000 0.72300  0.58080  0.53130  Biso   1.000  C
  C104     1.0000 0.73710  0.50360  0.56540  Biso   1.000  C
  H74      1.0000 0.75840  0.47930  0.57330  Biso   1.000  H
  H75      1.0000 0.73660  0.62310  0.47390  Biso   1.000  H
  C105     1.0000 0.66970  0.45360  0.59610  Biso   1.000  C
  O29      1.0000 0.69630  0.41640  0.59760  Biso   1.000  O
  O30      1.0000 0.62790  0.45160  0.61350  Biso   1.000  O
  C106     1.0000 0.68850  0.99670  0.07240  Biso   1.000  C
  C107     1.0000 0.65600  0.03300  0.05700  Biso   1.000  C
  H76      1.0000 0.62320  0.02900  0.06060  Biso   1.000  H
  C108     1.0000 0.67440  0.07430  0.03660  Biso   1.000  C
  H77      1.0000 0.65360  0.09800  0.02620  Biso   1.000  H
  C109     1.0000 0.75390  0.04540  0.04700  Biso   1.000  C
  H78      1.0000 0.78680  0.05020  0.04500  Biso   1.000  H
  C110     1.0000 0.72300  0.08080  0.03130  Biso   1.000  C
  C111     1.0000 0.73710  0.00360  0.06540  Biso   1.000  C
  H79      1.0000 0.75840  0.97930  0.07330  Biso   1.000  H
  H80      1.0000 0.73660  0.12310  0.97390  Biso   1.000  H
  C112     1.0000 0.66970  0.95360  0.09610  Biso   1.000  C
  O31      1.0000 0.69630  0.91640  0.09760  Biso   1.000  O
  O32      1.0000 0.62790  0.95160  0.11350  Biso   1.000  O
  C113     1.0000 0.50330  0.42760  0.68850  Biso   1.000  C
  C114     1.0000 0.46700  0.44300  0.65600  Biso   1.000  C
  H81      1.0000 0.47100  0.43940  0.62320  Biso   1.000  H
  C115     1.0000 0.42570  0.46340  0.67440  Biso   1.000  C
  H82      1.0000 0.40200  0.47380  0.65360  Biso   1.000  H
  C116     1.0000 0.45460  0.45300  0.75390  Biso   1.000  C
  H83      1.0000 0.44980  0.45500  0.78680  Biso   1.000  H
  C117     1.0000 0.41920  0.46870  0.72300  Biso   1.000  C
  C118     1.0000 0.49640  0.43460  0.73710  Biso   1.000  C
  H84      1.0000 0.52070  0.42670  0.75840  Biso   1.000  H
  H85      1.0000 0.37690  0.52610  0.73660  Biso   1.000  H
  C119     1.0000 0.54640  0.40390  0.66970  Biso   1.000  C
  O33      1.0000 0.58360  0.40240  0.69630  Biso   1.000  O
  O34      1.0000 0.54840  0.38650  0.62790  Biso   1.000  O
  C120     1.0000 0.50330  0.92760  0.18850  Biso   1.000  C
  C121     1.0000 0.46700  0.94300  0.15600  Biso   1.000  C
  H86      1.0000 0.47100  0.93940  0.12320  Biso   1.000  H
  C122     1.0000 0.42570  0.96340  0.17440  Biso   1.000  C
  H87      1.0000 0.40200  0.97380  0.15360  Biso   1.000  H
  C123     1.0000 0.45460  0.95300  0.25390  Biso   1.000  C
  H88      1.0000 0.44980  0.95500  0.28680  Biso   1.000  H
  C124     1.0000 0.41920  0.96870  0.22300  Biso   1.000  C
  C125     1.0000 0.49640  0.93460  0.23710  Biso   1.000  C
  H89      1.0000 0.52070  0.92670  0.25840  Biso   1.000  H
  H90      1.0000 0.37690  0.02610  0.23660  Biso   1.000  H
  C126     1.0000 0.54640  0.90390  0.16970  Biso   1.000  C
  O35      1.0000 0.58360  0.90240  0.19630  Biso   1.000  O
  O36      1.0000 0.54840  0.88650  0.12790  Biso   1.000  O
  C127     1.0000 0.00330  0.42760  0.18850  Biso   1.000  C
  C128     1.0000 0.96700  0.44300  0.15600  Biso   1.000  C
  H91      1.0000 0.97100  0.43940  0.12320  Biso   1.000  H
  C129     1.0000 0.92570  0.46340  0.17440  Biso   1.000  C
  H92      1.0000 0.90200  0.47380  0.15360  Biso   1.000  H
  C130     1.0000 0.95460  0.45300  0.25390  Biso   1.000  C
  H93      1.0000 0.94980  0.45500  0.28680  Biso   1.000  H
  C131     1.0000 0.91920  0.46870  0.22300  Biso   1.000  C
  C132     1.0000 0.99640  0.43460  0.23710  Biso   1.000  C
  H94      1.0000 0.02070  0.42670  0.25840  Biso   1.000  H
  H95      1.0000 0.87690  0.52610  0.23660  Biso   1.000  H
  C133     1.0000 0.04640  0.40390  0.16970  Biso   1.000  C
  O37      1.0000 0.08360  0.40240  0.19630  Biso   1.000  O
  O38      1.0000 0.04840  0.38650  0.12790  Biso   1.000  O
  C134     1.0000 0.00330  0.92760  0.68850  Biso   1.000  C
  C135     1.0000 0.96700  0.94300  0.65600  Biso   1.000  C
  H96      1.0000 0.97100  0.93940  0.62320  Biso   1.000  H
  C136     1.0000 0.92570  0.96340  0.67440  Biso   1.000  C
  H97      1.0000 0.90200  0.97380  0.65360  Biso   1.000  H
  C137     1.0000 0.95460  0.95300  0.75390  Biso   1.000  C
  H98      1.0000 0.94980  0.95500  0.78680  Biso   1.000  H
  C138     1.0000 0.91920  0.96870  0.72300  Biso   1.000  C
  C139     1.0000 0.99640  0.93460  0.73710  Biso   1.000  C
  H99      1.0000 0.02070  0.92670  0.75840  Biso   1.000  H
  H100     1.0000 0.87690  0.02610  0.73660  Biso   1.000  H
  C140     1.0000 0.04640  0.90390  0.66970  Biso   1.000  C
  O39      1.0000 0.08360  0.90240  0.69630  Biso   1.000  O
  O40      1.0000 0.04840  0.88650  0.62790  Biso   1.000  O
  C141     1.0000 0.57240  0.81150  0.00330  Biso   1.000  C
  C142     1.0000 0.55700  0.84400  0.96700  Biso   1.000  C
  H101     1.0000 0.56060  0.87680  0.97100  Biso   1.000  H
  C143     1.0000 0.53660  0.82560  0.92570  Biso   1.000  C
  H102     1.0000 0.52620  0.84640  0.90200  Biso   1.000  H
  C144     1.0000 0.54700  0.74610  0.95460  Biso   1.000  C
  H103     1.0000 0.54500  0.71320  0.94980  Biso   1.000  H
  C145     1.0000 0.53130  0.77700  0.91920  Biso   1.000  C
  C146     1.0000 0.56540  0.76290  0.99640  Biso   1.000  C
  H104     1.0000 0.57330  0.74160  0.02070  Biso   1.000  H
  H105     1.0000 0.47390  0.76340  0.87690  Biso   1.000  H
  C147     1.0000 0.59610  0.83030  0.04640  Biso   1.000  C
  O41      1.0000 0.59760  0.80370  0.08360  Biso   1.000  O
  O42      1.0000 0.61350  0.87210  0.04840  Biso   1.000  O
  C148     1.0000 0.57240  0.31150  0.50330  Biso   1.000  C
  C149     1.0000 0.55700  0.34400  0.46700  Biso   1.000  C
  H106     1.0000 0.56060  0.37680  0.47100  Biso   1.000  H
  C150     1.0000 0.53660  0.32560  0.42570  Biso   1.000  C
  H107     1.0000 0.52620  0.34640  0.40200  Biso   1.000  H
  C151     1.0000 0.54700  0.24610  0.45460  Biso   1.000  C
  H108     1.0000 0.54500  0.21320  0.44980  Biso   1.000  H
  C152     1.0000 0.53130  0.27700  0.41920  Biso   1.000  C
  C153     1.0000 0.56540  0.26290  0.49640  Biso   1.000  C
  H109     1.0000 0.57330  0.24160  0.52070  Biso   1.000  H
  H110     1.0000 0.47390  0.26340  0.37690  Biso   1.000  H
  C154     1.0000 0.59610  0.33030  0.54640  Biso   1.000  C
  O43      1.0000 0.59760  0.30370  0.58360  Biso   1.000  O
  O44      1.0000 0.61350  0.37210  0.54840  Biso   1.000  O
  C155     1.0000 0.07240  0.81150  0.50330  Biso   1.000  C
  C156     1.0000 0.05700  0.84400  0.46700  Biso   1.000  C
  H111     1.0000 0.06060  0.87680  0.47100  Biso   1.000  H
  C157     1.0000 0.03660  0.82560  0.42570  Biso   1.000  C
  H112     1.0000 0.02620  0.84640  0.40200  Biso   1.000  H
  C158     1.0000 0.04700  0.74610  0.45460  Biso   1.000  C
  H113     1.0000 0.04500  0.71320  0.44980  Biso   1.000  H
  C159     1.0000 0.03130  0.77700  0.41920  Biso   1.000  C
  C160     1.0000 0.06540  0.76290  0.49640  Biso   1.000  C
  H114     1.0000 0.07330  0.74160  0.52070  Biso   1.000  H
  H115     1.0000 0.97390  0.76340  0.37690  Biso   1.000  H
  C161     1.0000 0.09610  0.83030  0.54640  Biso   1.000  C
  O45      1.0000 0.09760  0.80370  0.58360  Biso   1.000  O
  O46      1.0000 0.11350  0.87210  0.54840  Biso   1.000  O
  C162     1.0000 0.07240  0.31150  0.00330  Biso   1.000  C
  C163     1.0000 0.05700  0.34400  0.96700  Biso   1.000  C
  H116     1.0000 0.06060  0.37680  0.97100  Biso   1.000  H
  C164     1.0000 0.03660  0.32560  0.92570  Biso   1.000  C
  H117     1.0000 0.02620  0.34640  0.90200  Biso   1.000  H
  C165     1.0000 0.04700  0.24610  0.95460  Biso   1.000  C
  H118     1.0000 0.04500  0.21320  0.94980  Biso   1.000  H
  C166     1.0000 0.03130  0.27700  0.91920  Biso   1.000  C
  C167     1.0000 0.06540  0.26290  0.99640  Biso   1.000  C
  H119     1.0000 0.07330  0.24160  0.02070  Biso   1.000  H
  H120     1.0000 0.97390  0.26340  0.87690  Biso   1.000  H
  C168     1.0000 0.09610  0.33030  0.04640  Biso   1.000  C
  O47      1.0000 0.09760  0.30370  0.08360  Biso   1.000  O
  O48      1.0000 0.11350  0.37210  0.04840  Biso   1.000  O
  C169     1.0000 0.37500  0.49190  0.74190  Biso   1.000  C
  C170     1.0000 0.37500  0.99190  0.24190  Biso   1.000  C
  C171     1.0000 0.87500  0.49190  0.24190  Biso   1.000  C
  C172     1.0000 0.87500  0.99190  0.74190  Biso   1.000  C
  C173     1.0000 0.24190  0.62500  0.00810  Biso   1.000  C
  C174     1.0000 0.24190  0.12500  0.50810  Biso   1.000  C
  C175     1.0000 0.74190  0.62500  0.50810  Biso   1.000  C
  C176     1.0000 0.74190  0.12500  0.00810  Biso   1.000  C
  C177     1.0000 0.50810  0.75810  0.87500  Biso   1.000  C
  C178     1.0000 0.50810  0.25810  0.37500  Biso   1.000  C
  C179     1.0000 0.00810  0.75810  0.37500  Biso   1.000  C
  C180     1.0000 0.00810  0.25810  0.87500  Biso   1.000  C
  Tb1      1.0000 0.11731  0.38269  0.61731  Biso   1.000  Tb
  Tb2      1.0000 0.11731  0.88269  0.11731  Biso   1.000  Tb
  Tb3      1.0000 0.61731  0.88269  0.61731  Biso   1.000  Tb
  Tb4      1.0000 0.61731  0.38269  0.11731  Biso   1.000  Tb
  Tb5      1.0000 0.13269  0.36731  0.13269  Biso   1.000  Tb
  Tb6      1.0000 0.13269  0.86731  0.63269  Biso   1.000  Tb
  Tb7      1.0000 0.63269  0.36731  0.63269  Biso   1.000  Tb
  Tb8      1.0000 0.63269  0.86731  0.13269  Biso   1.000  Tb
  C181     1.0000 0.75330  0.06150  0.17760  Biso   1.000  C
  C182     1.0000 0.71700  0.09400  0.19300  Biso   1.000  C
  H121     1.0000 0.72100  0.12680  0.18940  Biso   1.000  H
  C183     1.0000 0.67570  0.07560  0.21340  Biso   1.000  C
  H122     1.0000 0.65200  0.09640  0.22380  Biso   1.000  H
  C184     1.0000 0.70460  0.99610  0.20300  Biso   1.000  C
  H123     1.0000 0.69980  0.96320  0.20500  Biso   1.000  H
  C185     1.0000 0.66920  0.02700  0.21870  Biso   1.000  C
  C186     1.0000 0.74640  0.01290  0.18460  Biso   1.000  C
  H124     1.0000 0.77070  0.99160  0.17670  Biso   1.000  H
  H125     1.0000 0.62690  0.01340  0.27610  Biso   1.000  H
  C187     1.0000 0.79640  0.08030  0.15390  Biso   1.000  C
  O49      1.0000 0.83360  0.05370  0.15240  Biso   1.000  O
  O50      1.0000 0.79840  0.12210  0.13650  Biso   1.000  O
  C188     1.0000 0.75330  0.56150  0.67760  Biso   1.000  C
  C189     1.0000 0.71700  0.59400  0.69300  Biso   1.000  C
  H126     1.0000 0.72100  0.62680  0.68940  Biso   1.000  H
  C190     1.0000 0.67570  0.57560  0.71340  Biso   1.000  C
  H127     1.0000 0.65200  0.59640  0.72380  Biso   1.000  H
  C191     1.0000 0.70460  0.49610  0.70300  Biso   1.000  C
  H128     1.0000 0.69980  0.46320  0.70500  Biso   1.000  H
  C192     1.0000 0.66920  0.52700  0.71870  Biso   1.000  C
  C193     1.0000 0.74640  0.51290  0.68460  Biso   1.000  C
  H129     1.0000 0.77070  0.49160  0.67670  Biso   1.000  H
  H130     1.0000 0.62690  0.51340  0.77610  Biso   1.000  H
  C194     1.0000 0.79640  0.58030  0.65390  Biso   1.000  C
  O51      1.0000 0.83360  0.55370  0.65240  Biso   1.000  O
  O52      1.0000 0.79840  0.62210  0.63650  Biso   1.000  O
  C195     1.0000 0.25330  0.06150  0.67760  Biso   1.000  C
  C196     1.0000 0.21700  0.09400  0.69300  Biso   1.000  C
  H131     1.0000 0.22100  0.12680  0.68940  Biso   1.000  H
  C197     1.0000 0.17570  0.07560  0.71340  Biso   1.000  C
  H132     1.0000 0.15200  0.09640  0.72380  Biso   1.000  H
  C198     1.0000 0.20460  0.99610  0.70300  Biso   1.000  C
  H133     1.0000 0.19980  0.96320  0.70500  Biso   1.000  H
  C199     1.0000 0.16920  0.02700  0.71870  Biso   1.000  C
  C200     1.0000 0.24640  0.01290  0.68460  Biso   1.000  C
  H134     1.0000 0.27070  0.99160  0.67670  Biso   1.000  H
  H135     1.0000 0.12690  0.01340  0.77610  Biso   1.000  H
  C201     1.0000 0.29640  0.08030  0.65390  Biso   1.000  C
  O53      1.0000 0.33360  0.05370  0.65240  Biso   1.000  O
  O54      1.0000 0.29840  0.12210  0.63650  Biso   1.000  O
  C202     1.0000 0.25330  0.56150  0.17760  Biso   1.000  C
  C203     1.0000 0.21700  0.59400  0.19300  Biso   1.000  C
  H136     1.0000 0.22100  0.62680  0.18940  Biso   1.000  H
  C204     1.0000 0.17570  0.57560  0.21340  Biso   1.000  C
  H137     1.0000 0.15200  0.59640  0.22380  Biso   1.000  H
  C205     1.0000 0.20460  0.49610  0.20300  Biso   1.000  C
  H138     1.0000 0.19980  0.46320  0.20500  Biso   1.000  H
  C206     1.0000 0.16920  0.52700  0.21870  Biso   1.000  C
  C207     1.0000 0.24640  0.51290  0.18460  Biso   1.000  C
  H139     1.0000 0.27070  0.49160  0.17670  Biso   1.000  H
  H140     1.0000 0.12690  0.51340  0.27610  Biso   1.000  H
  C208     1.0000 0.29640  0.58030  0.15390  Biso   1.000  C
  O55      1.0000 0.33360  0.55370  0.15240  Biso   1.000  O
  O56      1.0000 0.29840  0.62210  0.13650  Biso   1.000  O
  C209     1.0000 0.82240  0.74670  0.56150  Biso   1.000  C
  C210     1.0000 0.80700  0.78300  0.59400  Biso   1.000  C
  H141     1.0000 0.81060  0.77900  0.62680  Biso   1.000  H
  C211     1.0000 0.78660  0.82430  0.57560  Biso   1.000  C
  H142     1.0000 0.77620  0.84800  0.59640  Biso   1.000  H
  C212     1.0000 0.79700  0.79540  0.49610  Biso   1.000  C
  H143     1.0000 0.79500  0.80020  0.46320  Biso   1.000  H
  C213     1.0000 0.78130  0.83080  0.52700  Biso   1.000  C
  C214     1.0000 0.81540  0.75360  0.51290  Biso   1.000  C
  H144     1.0000 0.82330  0.72930  0.49160  Biso   1.000  H
  H145     1.0000 0.72390  0.87310  0.51340  Biso   1.000  H
  C215     1.0000 0.84610  0.70360  0.58030  Biso   1.000  C
  O57      1.0000 0.84760  0.66640  0.55370  Biso   1.000  O
  O58      1.0000 0.86350  0.70160  0.62210  Biso   1.000  O
  C216     1.0000 0.82240  0.24670  0.06150  Biso   1.000  C
  C217     1.0000 0.80700  0.28300  0.09400  Biso   1.000  C
  H146     1.0000 0.81060  0.27900  0.12680  Biso   1.000  H
  C218     1.0000 0.78660  0.32430  0.07560  Biso   1.000  C
  H147     1.0000 0.77620  0.34800  0.09640  Biso   1.000  H
  C219     1.0000 0.79700  0.29540  0.99610  Biso   1.000  C
  H148     1.0000 0.79500  0.30020  0.96320  Biso   1.000  H
  C220     1.0000 0.78130  0.33080  0.02700  Biso   1.000  C
  C221     1.0000 0.81540  0.25360  0.01290  Biso   1.000  C
  H149     1.0000 0.82330  0.22930  0.99160  Biso   1.000  H
  H150     1.0000 0.72390  0.37310  0.01340  Biso   1.000  H
  C222     1.0000 0.84610  0.20360  0.08030  Biso   1.000  C
  O59      1.0000 0.84760  0.16640  0.05370  Biso   1.000  O
  O60      1.0000 0.86350  0.20160  0.12210  Biso   1.000  O
  C223     1.0000 0.32240  0.74670  0.06150  Biso   1.000  C
  C224     1.0000 0.30700  0.78300  0.09400  Biso   1.000  C
  H151     1.0000 0.31060  0.77900  0.12680  Biso   1.000  H
  C225     1.0000 0.28660  0.82430  0.07560  Biso   1.000  C
  H152     1.0000 0.27620  0.84800  0.09640  Biso   1.000  H
  C226     1.0000 0.29700  0.79540  0.99610  Biso   1.000  C
  H153     1.0000 0.29500  0.80020  0.96320  Biso   1.000  H
  C227     1.0000 0.28130  0.83080  0.02700  Biso   1.000  C
  C228     1.0000 0.31540  0.75360  0.01290  Biso   1.000  C
  H154     1.0000 0.32330  0.72930  0.99160  Biso   1.000  H
  H155     1.0000 0.22390  0.87310  0.01340  Biso   1.000  H
  C229     1.0000 0.34610  0.70360  0.08030  Biso   1.000  C
  O61      1.0000 0.34760  0.66640  0.05370  Biso   1.000  O
  O62      1.0000 0.36350  0.70160  0.12210  Biso   1.000  O
  C230     1.0000 0.32240  0.24670  0.56150  Biso   1.000  C
  C231     1.0000 0.30700  0.28300  0.59400  Biso   1.000  C
  H156     1.0000 0.31060  0.27900  0.62680  Biso   1.000  H
  C232     1.0000 0.28660  0.32430  0.57560  Biso   1.000  C
  H157     1.0000 0.27620  0.34800  0.59640  Biso   1.000  H
  C233     1.0000 0.29700  0.29540  0.49610  Biso   1.000  C
  H158     1.0000 0.29500  0.30020  0.46320  Biso   1.000  H
  C234     1.0000 0.28130  0.33080  0.52700  Biso   1.000  C
  C235     1.0000 0.31540  0.25360  0.51290  Biso   1.000  C
  H159     1.0000 0.32330  0.22930  0.49160  Biso   1.000  H
  H160     1.0000 0.22390  0.37310  0.51340  Biso   1.000  H
  C236     1.0000 0.34610  0.20360  0.58030  Biso   1.000  C
  O63      1.0000 0.34760  0.16640  0.55370  Biso   1.000  O
  O64      1.0000 0.36350  0.20160  0.62210  Biso   1.000  O
  C237     1.0000 0.43850  0.67760  0.24670  Biso   1.000  C
  C238     1.0000 0.40600  0.69300  0.28300  Biso   1.000  C
  H161     1.0000 0.37320  0.68940  0.27900  Biso   1.000  H
  C239     1.0000 0.42440  0.71340  0.32430  Biso   1.000  C
  H162     1.0000 0.40360  0.72380  0.34800  Biso   1.000  H
  C240     1.0000 0.50390  0.70300  0.29540  Biso   1.000  C
  H163     1.0000 0.53680  0.70500  0.30020  Biso   1.000  H
  C241     1.0000 0.47300  0.71870  0.33080  Biso   1.000  C
  C242     1.0000 0.48710  0.68460  0.25360  Biso   1.000  C
  H164     1.0000 0.50840  0.67670  0.22930  Biso   1.000  H
  H165     1.0000 0.48660  0.77610  0.37310  Biso   1.000  H
  C243     1.0000 0.41970  0.65390  0.20360  Biso   1.000  C
  O65      1.0000 0.44630  0.65240  0.16640  Biso   1.000  O
  O66      1.0000 0.37790  0.63650  0.20160  Biso   1.000  O
  C244     1.0000 0.43850  0.17760  0.74670  Biso   1.000  C
  C245     1.0000 0.40600  0.19300  0.78300  Biso   1.000  C
  H166     1.0000 0.37320  0.18940  0.77900  Biso   1.000  H
  C246     1.0000 0.42440  0.21340  0.82430  Biso   1.000  C
  H167     1.0000 0.40360  0.22380  0.84800  Biso   1.000  H
  C247     1.0000 0.50390  0.20300  0.79540  Biso   1.000  C
  H168     1.0000 0.53680  0.20500  0.80020  Biso   1.000  H
  C248     1.0000 0.47300  0.21870  0.83080  Biso   1.000  C
  C249     1.0000 0.48710  0.18460  0.75360  Biso   1.000  C
  H169     1.0000 0.50840  0.17670  0.72930  Biso   1.000  H
  H170     1.0000 0.48660  0.27610  0.87310  Biso   1.000  H
  C250     1.0000 0.41970  0.15390  0.70360  Biso   1.000  C
  O67      1.0000 0.44630  0.15240  0.66640  Biso   1.000  O
  O68      1.0000 0.37790  0.13650  0.70160  Biso   1.000  O
  C251     1.0000 0.93850  0.67760  0.74670  Biso   1.000  C
  C252     1.0000 0.90600  0.69300  0.78300  Biso   1.000  C
  H171     1.0000 0.87320  0.68940  0.77900  Biso   1.000  H
  C253     1.0000 0.92440  0.71340  0.82430  Biso   1.000  C
  H172     1.0000 0.90360  0.72380  0.84800  Biso   1.000  H
  C254     1.0000 0.00390  0.70300  0.79540  Biso   1.000  C
  H173     1.0000 0.03680  0.70500  0.80020  Biso   1.000  H
  C255     1.0000 0.97300  0.71870  0.83080  Biso   1.000  C
  C256     1.0000 0.98710  0.68460  0.75360  Biso   1.000  C
  H174     1.0000 0.00840  0.67670  0.72930  Biso   1.000  H
  H175     1.0000 0.98660  0.77610  0.87310  Biso   1.000  H
  C257     1.0000 0.91970  0.65390  0.70360  Biso   1.000  C
  O69      1.0000 0.94630  0.65240  0.66640  Biso   1.000  O
  O70      1.0000 0.87790  0.63650  0.70160  Biso   1.000  O
  C258     1.0000 0.93850  0.17760  0.24670  Biso   1.000  C
  C259     1.0000 0.90600  0.19300  0.28300  Biso   1.000  C
  H176     1.0000 0.87320  0.18940  0.27900  Biso   1.000  H
  C260     1.0000 0.92440  0.21340  0.32430  Biso   1.000  C
  H177     1.0000 0.90360  0.22380  0.34800  Biso   1.000  H
  C261     1.0000 0.00390  0.20300  0.29540  Biso   1.000  C
  H178     1.0000 0.03680  0.20500  0.30020  Biso   1.000  H
  C262     1.0000 0.97300  0.21870  0.33080  Biso   1.000  C
  C263     1.0000 0.98710  0.18460  0.25360  Biso   1.000  C
  H179     1.0000 0.00840  0.17670  0.22930  Biso   1.000  H
  H180     1.0000 0.98660  0.27610  0.37310  Biso   1.000  H
  C264     1.0000 0.91970  0.15390  0.20360  Biso   1.000  C
  O71      1.0000 0.94630  0.15240  0.16640  Biso   1.000  O
  O72      1.0000 0.87790  0.13650  0.20160  Biso   1.000  O
  C265     1.0000 0.81150  0.00330  0.57240  Biso   1.000  C
  C266     1.0000 0.84400  0.96700  0.55700  Biso   1.000  C
  H181     1.0000 0.87680  0.97100  0.56060  Biso   1.000  H
  C267     1.0000 0.82560  0.92570  0.53660  Biso   1.000  C
  H182     1.0000 0.84640  0.90200  0.52620  Biso   1.000  H
  C268     1.0000 0.74610  0.95460  0.54700  Biso   1.000  C
  H183     1.0000 0.71320  0.94980  0.54500  Biso   1.000  H
  C269     1.0000 0.77700  0.91920  0.53130  Biso   1.000  C
  C270     1.0000 0.76290  0.99640  0.56540  Biso   1.000  C
  H184     1.0000 0.74160  0.02070  0.57330  Biso   1.000  H
  H185     1.0000 0.76340  0.87690  0.47390  Biso   1.000  H
  C271     1.0000 0.83030  0.04640  0.59610  Biso   1.000  C
  O73      1.0000 0.80370  0.08360  0.59760  Biso   1.000  O
  O74      1.0000 0.87210  0.04840  0.61350  Biso   1.000  O
  C272     1.0000 0.81150  0.50330  0.07240  Biso   1.000  C
  C273     1.0000 0.84400  0.46700  0.05700  Biso   1.000  C
  H186     1.0000 0.87680  0.47100  0.06060  Biso   1.000  H
  C274     1.0000 0.82560  0.42570  0.03660  Biso   1.000  C
  H187     1.0000 0.84640  0.40200  0.02620  Biso   1.000  H
  C275     1.0000 0.74610  0.45460  0.04700  Biso   1.000  C
  H188     1.0000 0.71320  0.44980  0.04500  Biso   1.000  H
  C276     1.0000 0.77700  0.41920  0.03130  Biso   1.000  C
  C277     1.0000 0.76290  0.49640  0.06540  Biso   1.000  C
  H189     1.0000 0.74160  0.52070  0.07330  Biso   1.000  H
  H190     1.0000 0.76340  0.37690  0.97390  Biso   1.000  H
  C278     1.0000 0.83030  0.54640  0.09610  Biso   1.000  C
  O75      1.0000 0.80370  0.58360  0.09760  Biso   1.000  O
  O76      1.0000 0.87210  0.54840  0.11350  Biso   1.000  O
  C279     1.0000 0.31150  0.00330  0.07240  Biso   1.000  C
  C280     1.0000 0.34400  0.96700  0.05700  Biso   1.000  C
  H191     1.0000 0.37680  0.97100  0.06060  Biso   1.000  H
  C281     1.0000 0.32560  0.92570  0.03660  Biso   1.000  C
  H192     1.0000 0.34640  0.90200  0.02620  Biso   1.000  H
  C282     1.0000 0.24610  0.95460  0.04700  Biso   1.000  C
  H193     1.0000 0.21320  0.94980  0.04500  Biso   1.000  H
  C283     1.0000 0.27700  0.91920  0.03130  Biso   1.000  C
  C284     1.0000 0.26290  0.99640  0.06540  Biso   1.000  C
  H194     1.0000 0.24160  0.02070  0.07330  Biso   1.000  H
  H195     1.0000 0.26340  0.87690  0.97390  Biso   1.000  H
  C285     1.0000 0.33030  0.04640  0.09610  Biso   1.000  C
  O77      1.0000 0.30370  0.08360  0.09760  Biso   1.000  O
  O78      1.0000 0.37210  0.04840  0.11350  Biso   1.000  O
  C286     1.0000 0.31150  0.50330  0.57240  Biso   1.000  C
  C287     1.0000 0.34400  0.46700  0.55700  Biso   1.000  C
  H196     1.0000 0.37680  0.47100  0.56060  Biso   1.000  H
  C288     1.0000 0.32560  0.42570  0.53660  Biso   1.000  C
  H197     1.0000 0.34640  0.40200  0.52620  Biso   1.000  H
  C289     1.0000 0.24610  0.45460  0.54700  Biso   1.000  C
  H198     1.0000 0.21320  0.44980  0.54500  Biso   1.000  H
  C290     1.0000 0.27700  0.41920  0.53130  Biso   1.000  C
  C291     1.0000 0.26290  0.49640  0.56540  Biso   1.000  C
  H199     1.0000 0.24160  0.52070  0.57330  Biso   1.000  H
  H200     1.0000 0.26340  0.37690  0.47390  Biso   1.000  H
  C292     1.0000 0.33030  0.54640  0.59610  Biso   1.000  C
  O79      1.0000 0.30370  0.58360  0.59760  Biso   1.000  O
  O80      1.0000 0.37210  0.54840  0.61350  Biso   1.000  O
  C293     1.0000 0.49670  0.07240  0.18850  Biso   1.000  C
  C294     1.0000 0.53300  0.05700  0.15600  Biso   1.000  C
  H201     1.0000 0.52900  0.06060  0.12320  Biso   1.000  H
  C295     1.0000 0.57430  0.03660  0.17440  Biso   1.000  C
  H202     1.0000 0.59800  0.02620  0.15360  Biso   1.000  H
  C296     1.0000 0.54540  0.04700  0.25390  Biso   1.000  C
  H203     1.0000 0.55020  0.04500  0.28680  Biso   1.000  H
  C297     1.0000 0.58080  0.03130  0.22300  Biso   1.000  C
  C298     1.0000 0.50360  0.06540  0.23710  Biso   1.000  C
  H204     1.0000 0.47930  0.07330  0.25840  Biso   1.000  H
  H205     1.0000 0.62310  0.97390  0.23660  Biso   1.000  H
  C299     1.0000 0.45360  0.09610  0.16970  Biso   1.000  C
  O81      1.0000 0.41640  0.09760  0.19630  Biso   1.000  O
  O82      1.0000 0.45160  0.11350  0.12790  Biso   1.000  O
  C300     1.0000 0.49670  0.57240  0.68850  Biso   1.000  C
  C301     1.0000 0.53300  0.55700  0.65600  Biso   1.000  C
  H206     1.0000 0.52900  0.56060  0.62320  Biso   1.000  H
  C302     1.0000 0.57430  0.53660  0.67440  Biso   1.000  C
  H207     1.0000 0.59800  0.52620  0.65360  Biso   1.000  H
  C303     1.0000 0.54540  0.54700  0.75390  Biso   1.000  C
  H208     1.0000 0.55020  0.54500  0.78680  Biso   1.000  H
  C304     1.0000 0.58080  0.53130  0.72300  Biso   1.000  C
  C305     1.0000 0.50360  0.56540  0.73710  Biso   1.000  C
  H209     1.0000 0.47930  0.57330  0.75840  Biso   1.000  H
  H210     1.0000 0.62310  0.47390  0.73660  Biso   1.000  H
  C306     1.0000 0.45360  0.59610  0.66970  Biso   1.000  C
  O83      1.0000 0.41640  0.59760  0.69630  Biso   1.000  O
  O84      1.0000 0.45160  0.61350  0.62790  Biso   1.000  O
  C307     1.0000 0.99670  0.07240  0.68850  Biso   1.000  C
  C308     1.0000 0.03300  0.05700  0.65600  Biso   1.000  C
  H211     1.0000 0.02900  0.06060  0.62320  Biso   1.000  H
  C309     1.0000 0.07430  0.03660  0.67440  Biso   1.000  C
  H212     1.0000 0.09800  0.02620  0.65360  Biso   1.000  H
  C310     1.0000 0.04540  0.04700  0.75390  Biso   1.000  C
  H213     1.0000 0.05020  0.04500  0.78680  Biso   1.000  H
  C311     1.0000 0.08080  0.03130  0.72300  Biso   1.000  C
  C312     1.0000 0.00360  0.06540  0.73710  Biso   1.000  C
  H214     1.0000 0.97930  0.07330  0.75840  Biso   1.000  H
  H215     1.0000 0.12310  0.97390  0.73660  Biso   1.000  H
  C313     1.0000 0.95360  0.09610  0.66970  Biso   1.000  C
  O85      1.0000 0.91640  0.09760  0.69630  Biso   1.000  O
  O86      1.0000 0.95160  0.11350  0.62790  Biso   1.000  O
  C314     1.0000 0.99670  0.57240  0.18850  Biso   1.000  C
  C315     1.0000 0.03300  0.55700  0.15600  Biso   1.000  C
  H216     1.0000 0.02900  0.56060  0.12320  Biso   1.000  H
  C316     1.0000 0.07430  0.53660  0.17440  Biso   1.000  C
  H217     1.0000 0.09800  0.52620  0.15360  Biso   1.000  H
  C317     1.0000 0.04540  0.54700  0.25390  Biso   1.000  C
  H218     1.0000 0.05020  0.54500  0.28680  Biso   1.000  H
  C318     1.0000 0.08080  0.53130  0.22300  Biso   1.000  C
  C319     1.0000 0.00360  0.56540  0.23710  Biso   1.000  C
  H219     1.0000 0.97930  0.57330  0.25840  Biso   1.000  H
  H220     1.0000 0.12310  0.47390  0.23660  Biso   1.000  H
  C320     1.0000 0.95360  0.59610  0.16970  Biso   1.000  C
  O87      1.0000 0.91640  0.59760  0.19630  Biso   1.000  O
  O88      1.0000 0.95160  0.61350  0.12790  Biso   1.000  O
  C321     1.0000 0.42760  0.68850  0.50330  Biso   1.000  C
  C322     1.0000 0.44300  0.65600  0.46700  Biso   1.000  C
  H221     1.0000 0.43940  0.62320  0.47100  Biso   1.000  H
  C323     1.0000 0.46340  0.67440  0.42570  Biso   1.000  C
  H222     1.0000 0.47380  0.65360  0.40200  Biso   1.000  H
  C324     1.0000 0.45300  0.75390  0.45460  Biso   1.000  C
  H223     1.0000 0.45500  0.78680  0.44980  Biso   1.000  H
  C325     1.0000 0.46870  0.72300  0.41920  Biso   1.000  C
  C326     1.0000 0.43460  0.73710  0.49640  Biso   1.000  C
  H224     1.0000 0.42670  0.75840  0.52070  Biso   1.000  H
  H225     1.0000 0.52610  0.73660  0.37690  Biso   1.000  H
  C327     1.0000 0.40390  0.66970  0.54640  Biso   1.000  C
  O89      1.0000 0.40240  0.69630  0.58360  Biso   1.000  O
  O90      1.0000 0.38650  0.62790  0.54840  Biso   1.000  O
  C328     1.0000 0.42760  0.18850  0.00330  Biso   1.000  C
  C329     1.0000 0.44300  0.15600  0.96700  Biso   1.000  C
  H226     1.0000 0.43940  0.12320  0.97100  Biso   1.000  H
  C330     1.0000 0.46340  0.17440  0.92570  Biso   1.000  C
  H227     1.0000 0.47380  0.15360  0.90200  Biso   1.000  H
  C331     1.0000 0.45300  0.25390  0.95460  Biso   1.000  C
  H228     1.0000 0.45500  0.28680  0.94980  Biso   1.000  H
  C332     1.0000 0.46870  0.22300  0.91920  Biso   1.000  C
  C333     1.0000 0.43460  0.23710  0.99640  Biso   1.000  C
  H229     1.0000 0.42670  0.25840  0.02070  Biso   1.000  H
  H230     1.0000 0.52610  0.23660  0.87690  Biso   1.000  H
  C334     1.0000 0.40390  0.16970  0.04640  Biso   1.000  C
  O91      1.0000 0.40240  0.19630  0.08360  Biso   1.000  O
  O92      1.0000 0.38650  0.12790  0.04840  Biso   1.000  O
  C335     1.0000 0.92760  0.68850  0.00330  Biso   1.000  C
  C336     1.0000 0.94300  0.65600  0.96700  Biso   1.000  C
  H231     1.0000 0.93940  0.62320  0.97100  Biso   1.000  H
  C337     1.0000 0.96340  0.67440  0.92570  Biso   1.000  C
  H232     1.0000 0.97380  0.65360  0.90200  Biso   1.000  H
  C338     1.0000 0.95300  0.75390  0.95460  Biso   1.000  C
  H233     1.0000 0.95500  0.78680  0.94980  Biso   1.000  H
  C339     1.0000 0.96870  0.72300  0.91920  Biso   1.000  C
  C340     1.0000 0.93460  0.73710  0.99640  Biso   1.000  C
  H234     1.0000 0.92670  0.75840  0.02070  Biso   1.000  H
  H235     1.0000 0.02610  0.73660  0.87690  Biso   1.000  H
  C341     1.0000 0.90390  0.66970  0.04640  Biso   1.000  C
  O93      1.0000 0.90240  0.69630  0.08360  Biso   1.000  O
  O94      1.0000 0.88650  0.62790  0.04840  Biso   1.000  O
  C342     1.0000 0.92760  0.18850  0.50330  Biso   1.000  C
  C343     1.0000 0.94300  0.15600  0.46700  Biso   1.000  C
  H236     1.0000 0.93940  0.12320  0.47100  Biso   1.000  H
  C344     1.0000 0.96340  0.17440  0.42570  Biso   1.000  C
  H237     1.0000 0.97380  0.15360  0.40200  Biso   1.000  H
  C345     1.0000 0.95300  0.25390  0.45460  Biso   1.000  C
  H238     1.0000 0.95500  0.28680  0.44980  Biso   1.000  H
  C346     1.0000 0.96870  0.22300  0.41920  Biso   1.000  C
  C347     1.0000 0.93460  0.23710  0.49640  Biso   1.000  C
  H239     1.0000 0.92670  0.25840  0.52070  Biso   1.000  H
  H240     1.0000 0.02610  0.23660  0.37690  Biso   1.000  H
  C348     1.0000 0.90390  0.16970  0.54640  Biso   1.000  C
  O95      1.0000 0.90240  0.19630  0.58360  Biso   1.000  O
  O96      1.0000 0.88650  0.12790  0.54840  Biso   1.000  O
  C349     1.0000 0.62500  0.00810  0.24190  Biso   1.000  C
  C350     1.0000 0.62500  0.50810  0.74190  Biso   1.000  C
  C351     1.0000 0.12500  0.00810  0.74190  Biso   1.000  C
  C352     1.0000 0.12500  0.50810  0.24190  Biso   1.000  C
  C353     1.0000 0.75810  0.87500  0.50810  Biso   1.000  C
  C354     1.0000 0.75810  0.37500  0.00810  Biso   1.000  C
  C355     1.0000 0.25810  0.87500  0.00810  Biso   1.000  C
  C356     1.0000 0.25810  0.37500  0.50810  Biso   1.000  C
  C357     1.0000 0.49190  0.74190  0.37500  Biso   1.000  C
  C358     1.0000 0.49190  0.24190  0.87500  Biso   1.000  C
  C359     1.0000 0.99190  0.74190  0.87500  Biso   1.000  C
  C360     1.0000 0.99190  0.24190  0.37500  Biso   1.000  C
  Tb9      1.0000 0.88269  0.11731  0.11731  Biso   1.000  Tb
  Tb10     1.0000 0.88269  0.61731  0.61731  Biso   1.000  Tb
  Tb11     1.0000 0.38269  0.61731  0.11731  Biso   1.000  Tb
  Tb12     1.0000 0.38269  0.11731  0.61731  Biso   1.000  Tb
  Tb13     1.0000 0.86731  0.13269  0.63269  Biso   1.000  Tb
  Tb14     1.0000 0.86731  0.63269  0.13269  Biso   1.000  Tb
  Tb15     1.0000 0.36731  0.13269  0.13269  Biso   1.000  Tb
  Tb16     1.0000 0.36731  0.63269  0.63269  Biso   1.000  Tb
  C361     1.0000 0.25330  0.93850  0.32240  Biso   1.000  C
  C362     1.0000 0.21700  0.90600  0.30700  Biso   1.000  C
  H241     1.0000 0.22100  0.87320  0.31060  Biso   1.000  H
  C363     1.0000 0.17570  0.92440  0.28660  Biso   1.000  C
  H242     1.0000 0.15200  0.90360  0.27620  Biso   1.000  H
  C364     1.0000 0.20460  0.00390  0.29700  Biso   1.000  C
  H243     1.0000 0.19980  0.03680  0.29500  Biso   1.000  H
  C365     1.0000 0.16920  0.97300  0.28130  Biso   1.000  C
  C366     1.0000 0.24640  0.98710  0.31540  Biso   1.000  C
  H244     1.0000 0.27070  0.00840  0.32330  Biso   1.000  H
  H245     1.0000 0.12690  0.98660  0.22390  Biso   1.000  H
  C367     1.0000 0.29640  0.91970  0.34610  Biso   1.000  C
  O97      1.0000 0.33360  0.94630  0.34760  Biso   1.000  O
  O98      1.0000 0.29840  0.87790  0.36350  Biso   1.000  O
  C368     1.0000 0.25330  0.43850  0.82240  Biso   1.000  C
  C369     1.0000 0.21700  0.40600  0.80700  Biso   1.000  C
  H246     1.0000 0.22100  0.37320  0.81060  Biso   1.000  H
  C370     1.0000 0.17570  0.42440  0.78660  Biso   1.000  C
  H247     1.0000 0.15200  0.40360  0.77620  Biso   1.000  H
  C371     1.0000 0.20460  0.50390  0.79700  Biso   1.000  C
  H248     1.0000 0.19980  0.53680  0.79500  Biso   1.000  H
  C372     1.0000 0.16920  0.47300  0.78130  Biso   1.000  C
  C373     1.0000 0.24640  0.48710  0.81540  Biso   1.000  C
  H249     1.0000 0.27070  0.50840  0.82330  Biso   1.000  H
  H250     1.0000 0.12690  0.48660  0.72390  Biso   1.000  H
  C374     1.0000 0.29640  0.41970  0.84610  Biso   1.000  C
  O99      1.0000 0.33360  0.44630  0.84760  Biso   1.000  O
  O100     1.0000 0.29840  0.37790  0.86350  Biso   1.000  O
  C375     1.0000 0.75330  0.93850  0.82240  Biso   1.000  C
  C376     1.0000 0.71700  0.90600  0.80700  Biso   1.000  C
  H251     1.0000 0.72100  0.87320  0.81060  Biso   1.000  H
  C377     1.0000 0.67570  0.92440  0.78660  Biso   1.000  C
  H252     1.0000 0.65200  0.90360  0.77620  Biso   1.000  H
  C378     1.0000 0.70460  0.00390  0.79700  Biso   1.000  C
  H253     1.0000 0.69980  0.03680  0.79500  Biso   1.000  H
  C379     1.0000 0.66920  0.97300  0.78130  Biso   1.000  C
  C380     1.0000 0.74640  0.98710  0.81540  Biso   1.000  C
  H254     1.0000 0.77070  0.00840  0.82330  Biso   1.000  H
  H255     1.0000 0.62690  0.98660  0.72390  Biso   1.000  H
  C381     1.0000 0.79640  0.91970  0.84610  Biso   1.000  C
  O101     1.0000 0.83360  0.94630  0.84760  Biso   1.000  O
  O102     1.0000 0.79840  0.87790  0.86350  Biso   1.000  O
  C382     1.0000 0.75330  0.43850  0.32240  Biso   1.000  C
  C383     1.0000 0.71700  0.40600  0.30700  Biso   1.000  C
  H256     1.0000 0.72100  0.37320  0.31060  Biso   1.000  H
  C384     1.0000 0.67570  0.42440  0.28660  Biso   1.000  C
  H257     1.0000 0.65200  0.40360  0.27620  Biso   1.000  H
  C385     1.0000 0.70460  0.50390  0.29700  Biso   1.000  C
  H258     1.0000 0.69980  0.53680  0.29500  Biso   1.000  H
  C386     1.0000 0.66920  0.47300  0.28130  Biso   1.000  C
  C387     1.0000 0.74640  0.48710  0.31540  Biso   1.000  C
  H259     1.0000 0.77070  0.50840  0.32330  Biso   1.000  H
  H260     1.0000 0.62690  0.48660  0.22390  Biso   1.000  H
  C388     1.0000 0.79640  0.41970  0.34610  Biso   1.000  C
  O103     1.0000 0.83360  0.44630  0.34760  Biso   1.000  O
  O104     1.0000 0.79840  0.37790  0.36350  Biso   1.000  O
  C389     1.0000 0.32240  0.25330  0.93850  Biso   1.000  C
  C390     1.0000 0.30700  0.21700  0.90600  Biso   1.000  C
  H261     1.0000 0.31060  0.22100  0.87320  Biso   1.000  H
  C391     1.0000 0.28660  0.17570  0.92440  Biso   1.000  C
  H262     1.0000 0.27620  0.15200  0.90360  Biso   1.000  H
  C392     1.0000 0.29700  0.20460  0.00390  Biso   1.000  C
  H263     1.0000 0.29500  0.19980  0.03680  Biso   1.000  H
  C393     1.0000 0.28130  0.16920  0.97300  Biso   1.000  C
  C394     1.0000 0.31540  0.24640  0.98710  Biso   1.000  C
  H264     1.0000 0.32330  0.27070  0.00840  Biso   1.000  H
  H265     1.0000 0.22390  0.12690  0.98660  Biso   1.000  H
  C395     1.0000 0.34610  0.29640  0.91970  Biso   1.000  C
  O105     1.0000 0.34760  0.33360  0.94630  Biso   1.000  O
  O106     1.0000 0.36350  0.29840  0.87790  Biso   1.000  O
  C396     1.0000 0.32240  0.75330  0.43850  Biso   1.000  C
  C397     1.0000 0.30700  0.71700  0.40600  Biso   1.000  C
  H266     1.0000 0.31060  0.72100  0.37320  Biso   1.000  H
  C398     1.0000 0.28660  0.67570  0.42440  Biso   1.000  C
  H267     1.0000 0.27620  0.65200  0.40360  Biso   1.000  H
  C399     1.0000 0.29700  0.70460  0.50390  Biso   1.000  C
  H268     1.0000 0.29500  0.69980  0.53680  Biso   1.000  H
  C400     1.0000 0.28130  0.66920  0.47300  Biso   1.000  C
  C401     1.0000 0.31540  0.74640  0.48710  Biso   1.000  C
  H269     1.0000 0.32330  0.77070  0.50840  Biso   1.000  H
  H270     1.0000 0.22390  0.62690  0.48660  Biso   1.000  H
  C402     1.0000 0.34610  0.79640  0.41970  Biso   1.000  C
  O107     1.0000 0.34760  0.83360  0.44630  Biso   1.000  O
  O108     1.0000 0.36350  0.79840  0.37790  Biso   1.000  O
  C403     1.0000 0.82240  0.25330  0.43850  Biso   1.000  C
  C404     1.0000 0.80700  0.21700  0.40600  Biso   1.000  C
  H271     1.0000 0.81060  0.22100  0.37320  Biso   1.000  H
  C405     1.0000 0.78660  0.17570  0.42440  Biso   1.000  C
  H272     1.0000 0.77620  0.15200  0.40360  Biso   1.000  H
  C406     1.0000 0.79700  0.20460  0.50390  Biso   1.000  C
  H273     1.0000 0.79500  0.19980  0.53680  Biso   1.000  H
  C407     1.0000 0.78130  0.16920  0.47300  Biso   1.000  C
  C408     1.0000 0.81540  0.24640  0.48710  Biso   1.000  C
  H274     1.0000 0.82330  0.27070  0.50840  Biso   1.000  H
  H275     1.0000 0.72390  0.12690  0.48660  Biso   1.000  H
  C409     1.0000 0.84610  0.29640  0.41970  Biso   1.000  C
  O109     1.0000 0.84760  0.33360  0.44630  Biso   1.000  O
  O110     1.0000 0.86350  0.29840  0.37790  Biso   1.000  O
  C410     1.0000 0.82240  0.75330  0.93850  Biso   1.000  C
  C411     1.0000 0.80700  0.71700  0.90600  Biso   1.000  C
  H276     1.0000 0.81060  0.72100  0.87320  Biso   1.000  H
  C412     1.0000 0.78660  0.67570  0.92440  Biso   1.000  C
  H277     1.0000 0.77620  0.65200  0.90360  Biso   1.000  H
  C413     1.0000 0.79700  0.70460  0.00390  Biso   1.000  C
  H278     1.0000 0.79500  0.69980  0.03680  Biso   1.000  H
  C414     1.0000 0.78130  0.66920  0.97300  Biso   1.000  C
  C415     1.0000 0.81540  0.74640  0.98710  Biso   1.000  C
  H279     1.0000 0.82330  0.77070  0.00840  Biso   1.000  H
  H280     1.0000 0.72390  0.62690  0.98660  Biso   1.000  H
  C416     1.0000 0.84610  0.79640  0.91970  Biso   1.000  C
  O111     1.0000 0.84760  0.83360  0.94630  Biso   1.000  O
  O112     1.0000 0.86350  0.79840  0.87790  Biso   1.000  O
  C417     1.0000 0.93850  0.32240  0.25330  Biso   1.000  C
  C418     1.0000 0.90600  0.30700  0.21700  Biso   1.000  C
  H281     1.0000 0.87320  0.31060  0.22100  Biso   1.000  H
  C419     1.0000 0.92440  0.28660  0.17570  Biso   1.000  C
  H282     1.0000 0.90360  0.27620  0.15200  Biso   1.000  H
  C420     1.0000 0.00390  0.29700  0.20460  Biso   1.000  C
  H283     1.0000 0.03680  0.29500  0.19980  Biso   1.000  H
  C421     1.0000 0.97300  0.28130  0.16920  Biso   1.000  C
  C422     1.0000 0.98710  0.31540  0.24640  Biso   1.000  C
  H284     1.0000 0.00840  0.32330  0.27070  Biso   1.000  H
  H285     1.0000 0.98660  0.22390  0.12690  Biso   1.000  H
  C423     1.0000 0.91970  0.34610  0.29640  Biso   1.000  C
  O113     1.0000 0.94630  0.34760  0.33360  Biso   1.000  O
  O114     1.0000 0.87790  0.36350  0.29840  Biso   1.000  O
  C424     1.0000 0.93850  0.82240  0.75330  Biso   1.000  C
  C425     1.0000 0.90600  0.80700  0.71700  Biso   1.000  C
  H286     1.0000 0.87320  0.81060  0.72100  Biso   1.000  H
  C426     1.0000 0.92440  0.78660  0.67570  Biso   1.000  C
  H287     1.0000 0.90360  0.77620  0.65200  Biso   1.000  H
  C427     1.0000 0.00390  0.79700  0.70460  Biso   1.000  C
  H288     1.0000 0.03680  0.79500  0.69980  Biso   1.000  H
  C428     1.0000 0.97300  0.78130  0.66920  Biso   1.000  C
  C429     1.0000 0.98710  0.81540  0.74640  Biso   1.000  C
  H289     1.0000 0.00840  0.82330  0.77070  Biso   1.000  H
  H290     1.0000 0.98660  0.72390  0.62690  Biso   1.000  H
  C430     1.0000 0.91970  0.84610  0.79640  Biso   1.000  C
  O115     1.0000 0.94630  0.84760  0.83360  Biso   1.000  O
  O116     1.0000 0.87790  0.86350  0.79840  Biso   1.000  O
  C431     1.0000 0.43850  0.32240  0.75330  Biso   1.000  C
  C432     1.0000 0.40600  0.30700  0.71700  Biso   1.000  C
  H291     1.0000 0.37320  0.31060  0.72100  Biso   1.000  H
  C433     1.0000 0.42440  0.28660  0.67570  Biso   1.000  C
  H292     1.0000 0.40360  0.27620  0.65200  Biso   1.000  H
  C434     1.0000 0.50390  0.29700  0.70460  Biso   1.000  C
  H293     1.0000 0.53680  0.29500  0.69980  Biso   1.000  H
  C435     1.0000 0.47300  0.28130  0.66920  Biso   1.000  C
  C436     1.0000 0.48710  0.31540  0.74640  Biso   1.000  C
  H294     1.0000 0.50840  0.32330  0.77070  Biso   1.000  H
  H295     1.0000 0.48660  0.22390  0.62690  Biso   1.000  H
  C437     1.0000 0.41970  0.34610  0.79640  Biso   1.000  C
  O117     1.0000 0.44630  0.34760  0.83360  Biso   1.000  O
  O118     1.0000 0.37790  0.36350  0.79840  Biso   1.000  O
  C438     1.0000 0.43850  0.82240  0.25330  Biso   1.000  C
  C439     1.0000 0.40600  0.80700  0.21700  Biso   1.000  C
  H296     1.0000 0.37320  0.81060  0.22100  Biso   1.000  H
  C440     1.0000 0.42440  0.78660  0.17570  Biso   1.000  C
  H297     1.0000 0.40360  0.77620  0.15200  Biso   1.000  H
  C441     1.0000 0.50390  0.79700  0.20460  Biso   1.000  C
  H298     1.0000 0.53680  0.79500  0.19980  Biso   1.000  H
  C442     1.0000 0.47300  0.78130  0.16920  Biso   1.000  C
  C443     1.0000 0.48710  0.81540  0.24640  Biso   1.000  C
  H299     1.0000 0.50840  0.82330  0.27070  Biso   1.000  H
  H300     1.0000 0.48660  0.72390  0.12690  Biso   1.000  H
  C444     1.0000 0.41970  0.84610  0.29640  Biso   1.000  C
  O119     1.0000 0.44630  0.84760  0.33360  Biso   1.000  O
  O120     1.0000 0.37790  0.86350  0.29840  Biso   1.000  O
  C445     1.0000 0.31150  0.99670  0.92760  Biso   1.000  C
  C446     1.0000 0.34400  0.03300  0.94300  Biso   1.000  C
  H301     1.0000 0.37680  0.02900  0.93940  Biso   1.000  H
  C447     1.0000 0.32560  0.07430  0.96340  Biso   1.000  C
  H302     1.0000 0.34640  0.09800  0.97380  Biso   1.000  H
  C448     1.0000 0.24610  0.04540  0.95300  Biso   1.000  C
  H303     1.0000 0.21320  0.05020  0.95500  Biso   1.000  H
  C449     1.0000 0.27700  0.08080  0.96870  Biso   1.000  C
  C450     1.0000 0.26290  0.00360  0.93460  Biso   1.000  C
  H304     1.0000 0.24160  0.97930  0.92670  Biso   1.000  H
  H305     1.0000 0.26340  0.12310  0.02610  Biso   1.000  H
  C451     1.0000 0.33030  0.95360  0.90390  Biso   1.000  C
  O121     1.0000 0.30370  0.91640  0.90240  Biso   1.000  O
  O122     1.0000 0.37210  0.95160  0.88650  Biso   1.000  O
  C452     1.0000 0.31150  0.49670  0.42760  Biso   1.000  C
  C453     1.0000 0.34400  0.53300  0.44300  Biso   1.000  C
  H306     1.0000 0.37680  0.52900  0.43940  Biso   1.000  H
  C454     1.0000 0.32560  0.57430  0.46340  Biso   1.000  C
  H307     1.0000 0.34640  0.59800  0.47380  Biso   1.000  H
  C455     1.0000 0.24610  0.54540  0.45300  Biso   1.000  C
  H308     1.0000 0.21320  0.55020  0.45500  Biso   1.000  H
  C456     1.0000 0.27700  0.58080  0.46870  Biso   1.000  C
  C457     1.0000 0.26290  0.50360  0.43460  Biso   1.000  C
  H309     1.0000 0.24160  0.47930  0.42670  Biso   1.000  H
  H310     1.0000 0.26340  0.62310  0.52610  Biso   1.000  H
  C458     1.0000 0.33030  0.45360  0.40390  Biso   1.000  C
  O123     1.0000 0.30370  0.41640  0.40240  Biso   1.000  O
  O124     1.0000 0.37210  0.45160  0.38650  Biso   1.000  O
  C459     1.0000 0.81150  0.99670  0.42760  Biso   1.000  C
  C460     1.0000 0.84400  0.03300  0.44300  Biso   1.000  C
  H311     1.0000 0.87680  0.02900  0.43940  Biso   1.000  H
  C461     1.0000 0.82560  0.07430  0.46340  Biso   1.000  C
  H312     1.0000 0.84640  0.09800  0.47380  Biso   1.000  H
  C462     1.0000 0.74610  0.04540  0.45300  Biso   1.000  C
  H313     1.0000 0.71320  0.05020  0.45500  Biso   1.000  H
  C463     1.0000 0.77700  0.08080  0.46870  Biso   1.000  C
  C464     1.0000 0.76290  0.00360  0.43460  Biso   1.000  C
  H314     1.0000 0.74160  0.97930  0.42670  Biso   1.000  H
  H315     1.0000 0.76340  0.12310  0.52610  Biso   1.000  H
  C465     1.0000 0.83030  0.95360  0.40390  Biso   1.000  C
  O125     1.0000 0.80370  0.91640  0.40240  Biso   1.000  O
  O126     1.0000 0.87210  0.95160  0.38650  Biso   1.000  O
  C466     1.0000 0.81150  0.49670  0.92760  Biso   1.000  C
  C467     1.0000 0.84400  0.53300  0.94300  Biso   1.000  C
  H316     1.0000 0.87680  0.52900  0.93940  Biso   1.000  H
  C468     1.0000 0.82560  0.57430  0.96340  Biso   1.000  C
  H317     1.0000 0.84640  0.59800  0.97380  Biso   1.000  H
  C469     1.0000 0.74610  0.54540  0.95300  Biso   1.000  C
  H318     1.0000 0.71320  0.55020  0.95500  Biso   1.000  H
  C470     1.0000 0.77700  0.58080  0.96870  Biso   1.000  C
  C471     1.0000 0.76290  0.50360  0.93460  Biso   1.000  C
  H319     1.0000 0.74160  0.47930  0.92670  Biso   1.000  H
  H320     1.0000 0.76340  0.62310  0.02610  Biso   1.000  H
  C472     1.0000 0.83030  0.45360  0.90390  Biso   1.000  C
  O127     1.0000 0.80370  0.41640  0.90240  Biso   1.000  O
  O128     1.0000 0.87210  0.45160  0.88650  Biso   1.000  O
  C473     1.0000 0.99670  0.92760  0.31150  Biso   1.000  C
  C474     1.0000 0.03300  0.94300  0.34400  Biso   1.000  C
  H321     1.0000 0.02900  0.93940  0.37680  Biso   1.000  H
  C475     1.0000 0.07430  0.96340  0.32560  Biso   1.000  C
  H322     1.0000 0.09800  0.97380  0.34640  Biso   1.000  H
  C476     1.0000 0.04540  0.95300  0.24610  Biso   1.000  C
  H323     1.0000 0.05020  0.95500  0.21320  Biso   1.000  H
  C477     1.0000 0.08080  0.96870  0.27700  Biso   1.000  C
  C478     1.0000 0.00360  0.93460  0.26290  Biso   1.000  C
  H324     1.0000 0.97930  0.92670  0.24160  Biso   1.000  H
  H325     1.0000 0.12310  0.02610  0.26340  Biso   1.000  H
  C479     1.0000 0.95360  0.90390  0.33030  Biso   1.000  C
  O129     1.0000 0.91640  0.90240  0.30370  Biso   1.000  O
  O130     1.0000 0.95160  0.88650  0.37210  Biso   1.000  O
  C480     1.0000 0.99670  0.42760  0.81150  Biso   1.000  C
  C481     1.0000 0.03300  0.44300  0.84400  Biso   1.000  C
  H326     1.0000 0.02900  0.43940  0.87680  Biso   1.000  H
  C482     1.0000 0.07430  0.46340  0.82560  Biso   1.000  C
  H327     1.0000 0.09800  0.47380  0.84640  Biso   1.000  H
  C483     1.0000 0.04540  0.45300  0.74610  Biso   1.000  C
  H328     1.0000 0.05020  0.45500  0.71320  Biso   1.000  H
  C484     1.0000 0.08080  0.46870  0.77700  Biso   1.000  C
  C485     1.0000 0.00360  0.43460  0.76290  Biso   1.000  C
  H329     1.0000 0.97930  0.42670  0.74160  Biso   1.000  H
  H330     1.0000 0.12310  0.52610  0.76340  Biso   1.000  H
  C486     1.0000 0.95360  0.40390  0.83030  Biso   1.000  C
  O131     1.0000 0.91640  0.40240  0.80370  Biso   1.000  O
  O132     1.0000 0.95160  0.38650  0.87210  Biso   1.000  O
  C487     1.0000 0.49670  0.92760  0.81150  Biso   1.000  C
  C488     1.0000 0.53300  0.94300  0.84400  Biso   1.000  C
  H331     1.0000 0.52900  0.93940  0.87680  Biso   1.000  H
  C489     1.0000 0.57430  0.96340  0.82560  Biso   1.000  C
  H332     1.0000 0.59800  0.97380  0.84640  Biso   1.000  H
  C490     1.0000 0.54540  0.95300  0.74610  Biso   1.000  C
  H333     1.0000 0.55020  0.95500  0.71320  Biso   1.000  H
  C491     1.0000 0.58080  0.96870  0.77700  Biso   1.000  C
  C492     1.0000 0.50360  0.93460  0.76290  Biso   1.000  C
  H334     1.0000 0.47930  0.92670  0.74160  Biso   1.000  H
  H335     1.0000 0.62310  0.02610  0.76340  Biso   1.000  H
  C493     1.0000 0.45360  0.90390  0.83030  Biso   1.000  C
  O133     1.0000 0.41640  0.90240  0.80370  Biso   1.000  O
  O134     1.0000 0.45160  0.88650  0.87210  Biso   1.000  O
  C494     1.0000 0.49670  0.42760  0.31150  Biso   1.000  C
  C495     1.0000 0.53300  0.44300  0.34400  Biso   1.000  C
  H336     1.0000 0.52900  0.43940  0.37680  Biso   1.000  H
  C496     1.0000 0.57430  0.46340  0.32560  Biso   1.000  C
  H337     1.0000 0.59800  0.47380  0.34640  Biso   1.000  H
  C497     1.0000 0.54540  0.45300  0.24610  Biso   1.000  C
  H338     1.0000 0.55020  0.45500  0.21320  Biso   1.000  H
  C498     1.0000 0.58080  0.46870  0.27700  Biso   1.000  C
  C499     1.0000 0.50360  0.43460  0.26290  Biso   1.000  C
  H339     1.0000 0.47930  0.42670  0.24160  Biso   1.000  H
  H340     1.0000 0.62310  0.52610  0.26340  Biso   1.000  H
  C500     1.0000 0.45360  0.40390  0.33030  Biso   1.000  C
  O135     1.0000 0.41640  0.40240  0.30370  Biso   1.000  O
  O136     1.0000 0.45160  0.38650  0.37210  Biso   1.000  O
  C501     1.0000 0.92760  0.31150  0.99670  Biso   1.000  C
  C502     1.0000 0.94300  0.34400  0.03300  Biso   1.000  C
  H341     1.0000 0.93940  0.37680  0.02900  Biso   1.000  H
  C503     1.0000 0.96340  0.32560  0.07430  Biso   1.000  C
  H342     1.0000 0.97380  0.34640  0.09800  Biso   1.000  H
  C504     1.0000 0.95300  0.24610  0.04540  Biso   1.000  C
  H343     1.0000 0.95500  0.21320  0.05020  Biso   1.000  H
  C505     1.0000 0.96870  0.27700  0.08080  Biso   1.000  C
  C506     1.0000 0.93460  0.26290  0.00360  Biso   1.000  C
  H344     1.0000 0.92670  0.24160  0.97930  Biso   1.000  H
  H345     1.0000 0.02610  0.26340  0.12310  Biso   1.000  H
  C507     1.0000 0.90390  0.33030  0.95360  Biso   1.000  C
  O137     1.0000 0.90240  0.30370  0.91640  Biso   1.000  O
  O138     1.0000 0.88650  0.37210  0.95160  Biso   1.000  O
  C508     1.0000 0.92760  0.81150  0.49670  Biso   1.000  C
  C509     1.0000 0.94300  0.84400  0.53300  Biso   1.000  C
  H346     1.0000 0.93940  0.87680  0.52900  Biso   1.000  H
  C510     1.0000 0.96340  0.82560  0.57430  Biso   1.000  C
  H347     1.0000 0.97380  0.84640  0.59800  Biso   1.000  H
  C511     1.0000 0.95300  0.74610  0.54540  Biso   1.000  C
  H348     1.0000 0.95500  0.71320  0.55020  Biso   1.000  H
  C512     1.0000 0.96870  0.77700  0.58080  Biso   1.000  C
  C513     1.0000 0.93460  0.76290  0.50360  Biso   1.000  C
  H349     1.0000 0.92670  0.74160  0.47930  Biso   1.000  H
  H350     1.0000 0.02610  0.76340  0.62310  Biso   1.000  H
  C514     1.0000 0.90390  0.83030  0.45360  Biso   1.000  C
  O139     1.0000 0.90240  0.80370  0.41640  Biso   1.000  O
  O140     1.0000 0.88650  0.87210  0.45160  Biso   1.000  O
  C515     1.0000 0.42760  0.31150  0.49670  Biso   1.000  C
  C516     1.0000 0.44300  0.34400  0.53300  Biso   1.000  C
  H351     1.0000 0.43940  0.37680  0.52900  Biso   1.000  H
  C517     1.0000 0.46340  0.32560  0.57430  Biso   1.000  C
  H352     1.0000 0.47380  0.34640  0.59800  Biso   1.000  H
  C518     1.0000 0.45300  0.24610  0.54540  Biso   1.000  C
  H353     1.0000 0.45500  0.21320  0.55020  Biso   1.000  H
  C519     1.0000 0.46870  0.27700  0.58080  Biso   1.000  C
  C520     1.0000 0.43460  0.26290  0.50360  Biso   1.000  C
  H354     1.0000 0.42670  0.24160  0.47930  Biso   1.000  H
  H355     1.0000 0.52610  0.26340  0.62310  Biso   1.000  H
  C521     1.0000 0.40390  0.33030  0.45360  Biso   1.000  C
  O141     1.0000 0.40240  0.30370  0.41640  Biso   1.000  O
  O142     1.0000 0.38650  0.37210  0.45160  Biso   1.000  O
  C522     1.0000 0.42760  0.81150  0.99670  Biso   1.000  C
  C523     1.0000 0.44300  0.84400  0.03300  Biso   1.000  C
  H356     1.0000 0.43940  0.87680  0.02900  Biso   1.000  H
  C524     1.0000 0.46340  0.82560  0.07430  Biso   1.000  C
  H357     1.0000 0.47380  0.84640  0.09800  Biso   1.000  H
  C525     1.0000 0.45300  0.74610  0.04540  Biso   1.000  C
  H358     1.0000 0.45500  0.71320  0.05020  Biso   1.000  H
  C526     1.0000 0.46870  0.77700  0.08080  Biso   1.000  C
  C527     1.0000 0.43460  0.76290  0.00360  Biso   1.000  C
  H359     1.0000 0.42670  0.74160  0.97930  Biso   1.000  H
  H360     1.0000 0.52610  0.76340  0.12310  Biso   1.000  H
  C528     1.0000 0.40390  0.83030  0.95360  Biso   1.000  C
  O143     1.0000 0.40240  0.80370  0.91640  Biso   1.000  O
  O144     1.0000 0.38650  0.87210  0.95160  Biso   1.000  O
  C529     1.0000 0.12500  0.99190  0.25810  Biso   1.000  C
  C530     1.0000 0.12500  0.49190  0.75810  Biso   1.000  C
  C531     1.0000 0.62500  0.99190  0.75810  Biso   1.000  C
  C532     1.0000 0.62500  0.49190  0.25810  Biso   1.000  C
  C533     1.0000 0.25810  0.12500  0.99190  Biso   1.000  C
  C534     1.0000 0.25810  0.62500  0.49190  Biso   1.000  C
  C535     1.0000 0.75810  0.12500  0.49190  Biso   1.000  C
  C536     1.0000 0.75810  0.62500  0.99190  Biso   1.000  C
  C537     1.0000 0.99190  0.25810  0.12500  Biso   1.000  C
  C538     1.0000 0.99190  0.75810  0.62500  Biso   1.000  C
  C539     1.0000 0.49190  0.25810  0.62500  Biso   1.000  C
  C540     1.0000 0.49190  0.75810  0.12500  Biso   1.000  C
  Tb17     1.0000 0.38269  0.88269  0.38269  Biso   1.000  Tb
  Tb18     1.0000 0.38269  0.38269  0.88269  Biso   1.000  Tb
  Tb19     1.0000 0.88269  0.38269  0.38269  Biso   1.000  Tb
  Tb20     1.0000 0.88269  0.88269  0.88269  Biso   1.000  Tb
  Tb21     1.0000 0.36731  0.86731  0.86731  Biso   1.000  Tb
  Tb22     1.0000 0.36731  0.36731  0.36731  Biso   1.000  Tb
  Tb23     1.0000 0.86731  0.86731  0.36731  Biso   1.000  Tb
  Tb24     1.0000 0.86731  0.36731  0.86731  Biso   1.000  Tb
  C541     1.0000 0.74670  0.56150  0.82240  Biso   1.000  C
  C542     1.0000 0.78300  0.59400  0.80700  Biso   1.000  C
  H361     1.0000 0.77900  0.62680  0.81060  Biso   1.000  H
  C543     1.0000 0.82430  0.57560  0.78660  Biso   1.000  C
  H362     1.0000 0.84800  0.59640  0.77620  Biso   1.000  H
  C544     1.0000 0.79540  0.49610  0.79700  Biso   1.000  C
  H363     1.0000 0.80020  0.46320  0.79500  Biso   1.000  H
  C545     1.0000 0.83080  0.52700  0.78130  Biso   1.000  C
  C546     1.0000 0.75360  0.51290  0.81540  Biso   1.000  C
  H364     1.0000 0.72930  0.49160  0.82330  Biso   1.000  H
  H365     1.0000 0.87310  0.51340  0.72390  Biso   1.000  H
  C547     1.0000 0.70360  0.58030  0.84610  Biso   1.000  C
  O145     1.0000 0.66640  0.55370  0.84760  Biso   1.000  O
  O146     1.0000 0.70160  0.62210  0.86350  Biso   1.000  O
  C548     1.0000 0.74670  0.06150  0.32240  Biso   1.000  C
  C549     1.0000 0.78300  0.09400  0.30700  Biso   1.000  C
  H366     1.0000 0.77900  0.12680  0.31060  Biso   1.000  H
  C550     1.0000 0.82430  0.07560  0.28660  Biso   1.000  C
  H367     1.0000 0.84800  0.09640  0.27620  Biso   1.000  H
  C551     1.0000 0.79540  0.99610  0.29700  Biso   1.000  C
  H368     1.0000 0.80020  0.96320  0.29500  Biso   1.000  H
  C552     1.0000 0.83080  0.02700  0.28130  Biso   1.000  C
  C553     1.0000 0.75360  0.01290  0.31540  Biso   1.000  C
  H369     1.0000 0.72930  0.99160  0.32330  Biso   1.000  H
  H370     1.0000 0.87310  0.01340  0.22390  Biso   1.000  H
  C554     1.0000 0.70360  0.08030  0.34610  Biso   1.000  C
  O147     1.0000 0.66640  0.05370  0.34760  Biso   1.000  O
  O148     1.0000 0.70160  0.12210  0.36350  Biso   1.000  O
  C555     1.0000 0.24670  0.56150  0.32240  Biso   1.000  C
  C556     1.0000 0.28300  0.59400  0.30700  Biso   1.000  C
  H371     1.0000 0.27900  0.62680  0.31060  Biso   1.000  H
  C557     1.0000 0.32430  0.57560  0.28660  Biso   1.000  C
  H372     1.0000 0.34800  0.59640  0.27620  Biso   1.000  H
  C558     1.0000 0.29540  0.49610  0.29700  Biso   1.000  C
  H373     1.0000 0.30020  0.46320  0.29500  Biso   1.000  H
  C559     1.0000 0.33080  0.52700  0.28130  Biso   1.000  C
  C560     1.0000 0.25360  0.51290  0.31540  Biso   1.000  C
  H374     1.0000 0.22930  0.49160  0.32330  Biso   1.000  H
  H375     1.0000 0.37310  0.51340  0.22390  Biso   1.000  H
  C561     1.0000 0.20360  0.58030  0.34610  Biso   1.000  C
  O149     1.0000 0.16640  0.55370  0.34760  Biso   1.000  O
  O150     1.0000 0.20160  0.62210  0.36350  Biso   1.000  O
  C562     1.0000 0.24670  0.06150  0.82240  Biso   1.000  C
  C563     1.0000 0.28300  0.09400  0.80700  Biso   1.000  C
  H376     1.0000 0.27900  0.12680  0.81060  Biso   1.000  H
  C564     1.0000 0.32430  0.07560  0.78660  Biso   1.000  C
  H377     1.0000 0.34800  0.09640  0.77620  Biso   1.000  H
  C565     1.0000 0.29540  0.99610  0.79700  Biso   1.000  C
  H378     1.0000 0.30020  0.96320  0.79500  Biso   1.000  H
  C566     1.0000 0.33080  0.02700  0.78130  Biso   1.000  C
  C567     1.0000 0.25360  0.01290  0.81540  Biso   1.000  C
  H379     1.0000 0.22930  0.99160  0.82330  Biso   1.000  H
  H380     1.0000 0.37310  0.01340  0.72390  Biso   1.000  H
  C568     1.0000 0.20360  0.08030  0.84610  Biso   1.000  C
  O151     1.0000 0.16640  0.05370  0.84760  Biso   1.000  O
  O152     1.0000 0.20160  0.12210  0.86350  Biso   1.000  O
  C569     1.0000 0.67760  0.24670  0.43850  Biso   1.000  C
  C570     1.0000 0.69300  0.28300  0.40600  Biso   1.000  C
  H381     1.0000 0.68940  0.27900  0.37320  Biso   1.000  H
  C571     1.0000 0.71340  0.32430  0.42440  Biso   1.000  C
  H382     1.0000 0.72380  0.34800  0.40360  Biso   1.000  H
  C572     1.0000 0.70300  0.29540  0.50390  Biso   1.000  C
  H383     1.0000 0.70500  0.30020  0.53680  Biso   1.000  H
  C573     1.0000 0.71870  0.33080  0.47300  Biso   1.000  C
  C574     1.0000 0.68460  0.25360  0.48710  Biso   1.000  C
  H384     1.0000 0.67670  0.22930  0.50840  Biso   1.000  H
  H385     1.0000 0.77610  0.37310  0.48660  Biso   1.000  H
  C575     1.0000 0.65390  0.20360  0.41970  Biso   1.000  C
  O153     1.0000 0.65240  0.16640  0.44630  Biso   1.000  O
  O154     1.0000 0.63650  0.20160  0.37790  Biso   1.000  O
  C576     1.0000 0.67760  0.74670  0.93850  Biso   1.000  C
  C577     1.0000 0.69300  0.78300  0.90600  Biso   1.000  C
  H386     1.0000 0.68940  0.77900  0.87320  Biso   1.000  H
  C578     1.0000 0.71340  0.82430  0.92440  Biso   1.000  C
  H387     1.0000 0.72380  0.84800  0.90360  Biso   1.000  H
  C579     1.0000 0.70300  0.79540  0.00390  Biso   1.000  C
  H388     1.0000 0.70500  0.80020  0.03680  Biso   1.000  H
  C580     1.0000 0.71870  0.83080  0.97300  Biso   1.000  C
  C581     1.0000 0.68460  0.75360  0.98710  Biso   1.000  C
  H389     1.0000 0.67670  0.72930  0.00840  Biso   1.000  H
  H390     1.0000 0.77610  0.87310  0.98660  Biso   1.000  H
  C582     1.0000 0.65390  0.70360  0.91970  Biso   1.000  C
  O155     1.0000 0.65240  0.66640  0.94630  Biso   1.000  O
  O156     1.0000 0.63650  0.70160  0.87790  Biso   1.000  O
  C583     1.0000 0.17760  0.24670  0.93850  Biso   1.000  C
  C584     1.0000 0.19300  0.28300  0.90600  Biso   1.000  C
  H391     1.0000 0.18940  0.27900  0.87320  Biso   1.000  H
  C585     1.0000 0.21340  0.32430  0.92440  Biso   1.000  C
  H392     1.0000 0.22380  0.34800  0.90360  Biso   1.000  H
  C586     1.0000 0.20300  0.29540  0.00390  Biso   1.000  C
  H393     1.0000 0.20500  0.30020  0.03680  Biso   1.000  H
  C587     1.0000 0.21870  0.33080  0.97300  Biso   1.000  C
  C588     1.0000 0.18460  0.25360  0.98710  Biso   1.000  C
  H394     1.0000 0.17670  0.22930  0.00840  Biso   1.000  H
  H395     1.0000 0.27610  0.37310  0.98660  Biso   1.000  H
  C589     1.0000 0.15390  0.20360  0.91970  Biso   1.000  C
  O157     1.0000 0.15240  0.16640  0.94630  Biso   1.000  O
  O158     1.0000 0.13650  0.20160  0.87790  Biso   1.000  O
  C590     1.0000 0.17760  0.74670  0.43850  Biso   1.000  C
  C591     1.0000 0.19300  0.78300  0.40600  Biso   1.000  C
  H396     1.0000 0.18940  0.77900  0.37320  Biso   1.000  H
  C592     1.0000 0.21340  0.82430  0.42440  Biso   1.000  C
  H397     1.0000 0.22380  0.84800  0.40360  Biso   1.000  H
  C593     1.0000 0.20300  0.79540  0.50390  Biso   1.000  C
  H398     1.0000 0.20500  0.80020  0.53680  Biso   1.000  H
  C594     1.0000 0.21870  0.83080  0.47300  Biso   1.000  C
  C595     1.0000 0.18460  0.75360  0.48710  Biso   1.000  C
  H399     1.0000 0.17670  0.72930  0.50840  Biso   1.000  H
  H400     1.0000 0.27610  0.87310  0.48660  Biso   1.000  H
  C596     1.0000 0.15390  0.70360  0.41970  Biso   1.000  C
  O159     1.0000 0.15240  0.66640  0.44630  Biso   1.000  O
  O160     1.0000 0.13650  0.70160  0.37790  Biso   1.000  O
  C597     1.0000 0.06150  0.17760  0.75330  Biso   1.000  C
  C598     1.0000 0.09400  0.19300  0.71700  Biso   1.000  C
  H401     1.0000 0.12680  0.18940  0.72100  Biso   1.000  H
  C599     1.0000 0.07560  0.21340  0.67570  Biso   1.000  C
  H402     1.0000 0.09640  0.22380  0.65200  Biso   1.000  H
  C600     1.0000 0.99610  0.20300  0.70460  Biso   1.000  C
  H403     1.0000 0.96320  0.20500  0.69980  Biso   1.000  H
  C601     1.0000 0.02700  0.21870  0.66920  Biso   1.000  C
  C602     1.0000 0.01290  0.18460  0.74640  Biso   1.000  C
  H404     1.0000 0.99160  0.17670  0.77070  Biso   1.000  H
  H405     1.0000 0.01340  0.27610  0.62690  Biso   1.000  H
  C603     1.0000 0.08030  0.15390  0.79640  Biso   1.000  C
  O161     1.0000 0.05370  0.15240  0.83360  Biso   1.000  O
  O162     1.0000 0.12210  0.13650  0.79840  Biso   1.000  O
  C604     1.0000 0.06150  0.67760  0.25330  Biso   1.000  C
  C605     1.0000 0.09400  0.69300  0.21700  Biso   1.000  C
  H406     1.0000 0.12680  0.68940  0.22100  Biso   1.000  H
  C606     1.0000 0.07560  0.71340  0.17570  Biso   1.000  C
  H407     1.0000 0.09640  0.72380  0.15200  Biso   1.000  H
  C607     1.0000 0.99610  0.70300  0.20460  Biso   1.000  C
  H408     1.0000 0.96320  0.70500  0.19980  Biso   1.000  H
  C608     1.0000 0.02700  0.71870  0.16920  Biso   1.000  C
  C609     1.0000 0.01290  0.68460  0.24640  Biso   1.000  C
  H409     1.0000 0.99160  0.67670  0.27070  Biso   1.000  H
  H410     1.0000 0.01340  0.77610  0.12690  Biso   1.000  H
  C610     1.0000 0.08030  0.65390  0.29640  Biso   1.000  C
  O163     1.0000 0.05370  0.65240  0.33360  Biso   1.000  O
  O164     1.0000 0.12210  0.63650  0.29840  Biso   1.000  O
  C611     1.0000 0.56150  0.17760  0.25330  Biso   1.000  C
  C612     1.0000 0.59400  0.19300  0.21700  Biso   1.000  C
  H411     1.0000 0.62680  0.18940  0.22100  Biso   1.000  H
  C613     1.0000 0.57560  0.21340  0.17570  Biso   1.000  C
  H412     1.0000 0.59640  0.22380  0.15200  Biso   1.000  H
  C614     1.0000 0.49610  0.20300  0.20460  Biso   1.000  C
  H413     1.0000 0.46320  0.20500  0.19980  Biso   1.000  H
  C615     1.0000 0.52700  0.21870  0.16920  Biso   1.000  C
  C616     1.0000 0.51290  0.18460  0.24640  Biso   1.000  C
  H414     1.0000 0.49160  0.17670  0.27070  Biso   1.000  H
  H415     1.0000 0.51340  0.27610  0.12690  Biso   1.000  H
  C617     1.0000 0.58030  0.15390  0.29640  Biso   1.000  C
  O165     1.0000 0.55370  0.15240  0.33360  Biso   1.000  O
  O166     1.0000 0.62210  0.13650  0.29840  Biso   1.000  O
  C618     1.0000 0.56150  0.67760  0.75330  Biso   1.000  C
  C619     1.0000 0.59400  0.69300  0.71700  Biso   1.000  C
  H416     1.0000 0.62680  0.68940  0.72100  Biso   1.000  H
  C620     1.0000 0.57560  0.71340  0.67570  Biso   1.000  C
  H417     1.0000 0.59640  0.72380  0.65200  Biso   1.000  H
  C621     1.0000 0.49610  0.70300  0.70460  Biso   1.000  C
  H418     1.0000 0.46320  0.70500  0.69980  Biso   1.000  H
  C622     1.0000 0.52700  0.71870  0.66920  Biso   1.000  C
  C623     1.0000 0.51290  0.68460  0.74640  Biso   1.000  C
  H419     1.0000 0.49160  0.67670  0.77070  Biso   1.000  H
  H420     1.0000 0.51340  0.77610  0.62690  Biso   1.000  H
  C624     1.0000 0.58030  0.65390  0.79640  Biso   1.000  C
  O167     1.0000 0.55370  0.65240  0.83360  Biso   1.000  O
  O168     1.0000 0.62210  0.63650  0.79840  Biso   1.000  O
  C625     1.0000 0.68850  0.50330  0.42760  Biso   1.000  C
  C626     1.0000 0.65600  0.46700  0.44300  Biso   1.000  C
  H421     1.0000 0.62320  0.47100  0.43940  Biso   1.000  H
  C627     1.0000 0.67440  0.42570  0.46340  Biso   1.000  C
  H422     1.0000 0.65360  0.40200  0.47380  Biso   1.000  H
  C628     1.0000 0.75390  0.45460  0.45300  Biso   1.000  C
  H423     1.0000 0.78680  0.44980  0.45500  Biso   1.000  H
  C629     1.0000 0.72300  0.41920  0.46870  Biso   1.000  C
  C630     1.0000 0.73710  0.49640  0.43460  Biso   1.000  C
  H424     1.0000 0.75840  0.52070  0.42670  Biso   1.000  H
  H425     1.0000 0.73660  0.37690  0.52610  Biso   1.000  H
  C631     1.0000 0.66970  0.54640  0.40390  Biso   1.000  C
  O169     1.0000 0.69630  0.58360  0.40240  Biso   1.000  O
  O170     1.0000 0.62790  0.54840  0.38650  Biso   1.000  O
  C632     1.0000 0.68850  0.00330  0.92760  Biso   1.000  C
  C633     1.0000 0.65600  0.96700  0.94300  Biso   1.000  C
  H426     1.0000 0.62320  0.97100  0.93940  Biso   1.000  H
  C634     1.0000 0.67440  0.92570  0.96340  Biso   1.000  C
  H427     1.0000 0.65360  0.90200  0.97380  Biso   1.000  H
  C635     1.0000 0.75390  0.95460  0.95300  Biso   1.000  C
  H428     1.0000 0.78680  0.94980  0.95500  Biso   1.000  H
  C636     1.0000 0.72300  0.91920  0.96870  Biso   1.000  C
  C637     1.0000 0.73710  0.99640  0.93460  Biso   1.000  C
  H429     1.0000 0.75840  0.02070  0.92670  Biso   1.000  H
  H430     1.0000 0.73660  0.87690  0.02610  Biso   1.000  H
  C638     1.0000 0.66970  0.04640  0.90390  Biso   1.000  C
  O171     1.0000 0.69630  0.08360  0.90240  Biso   1.000  O
  O172     1.0000 0.62790  0.04840  0.88650  Biso   1.000  O
  C639     1.0000 0.18850  0.50330  0.92760  Biso   1.000  C
  C640     1.0000 0.15600  0.46700  0.94300  Biso   1.000  C
  H431     1.0000 0.12320  0.47100  0.93940  Biso   1.000  H
  C641     1.0000 0.17440  0.42570  0.96340  Biso   1.000  C
  H432     1.0000 0.15360  0.40200  0.97380  Biso   1.000  H
  C642     1.0000 0.25390  0.45460  0.95300  Biso   1.000  C
  H433     1.0000 0.28680  0.44980  0.95500  Biso   1.000  H
  C643     1.0000 0.22300  0.41920  0.96870  Biso   1.000  C
  C644     1.0000 0.23710  0.49640  0.93460  Biso   1.000  C
  H434     1.0000 0.25840  0.52070  0.92670  Biso   1.000  H
  H435     1.0000 0.23660  0.37690  0.02610  Biso   1.000  H
  C645     1.0000 0.16970  0.54640  0.90390  Biso   1.000  C
  O173     1.0000 0.19630  0.58360  0.90240  Biso   1.000  O
  O174     1.0000 0.12790  0.54840  0.88650  Biso   1.000  O
  C646     1.0000 0.18850  0.00330  0.42760  Biso   1.000  C
  C647     1.0000 0.15600  0.96700  0.44300  Biso   1.000  C
  H436     1.0000 0.12320  0.97100  0.43940  Biso   1.000  H
  C648     1.0000 0.17440  0.92570  0.46340  Biso   1.000  C
  H437     1.0000 0.15360  0.90200  0.47380  Biso   1.000  H
  C649     1.0000 0.25390  0.95460  0.45300  Biso   1.000  C
  H438     1.0000 0.28680  0.94980  0.45500  Biso   1.000  H
  C650     1.0000 0.22300  0.91920  0.46870  Biso   1.000  C
  C651     1.0000 0.23710  0.99640  0.43460  Biso   1.000  C
  H439     1.0000 0.25840  0.02070  0.42670  Biso   1.000  H
  H440     1.0000 0.23660  0.87690  0.52610  Biso   1.000  H
  C652     1.0000 0.16970  0.04640  0.40390  Biso   1.000  C
  O175     1.0000 0.19630  0.08360  0.40240  Biso   1.000  O
  O176     1.0000 0.12790  0.04840  0.38650  Biso   1.000  O
  C653     1.0000 0.00330  0.57240  0.81150  Biso   1.000  C
  C654     1.0000 0.96700  0.55700  0.84400  Biso   1.000  C
  H441     1.0000 0.97100  0.56060  0.87680  Biso   1.000  H
  C655     1.0000 0.92570  0.53660  0.82560  Biso   1.000  C
  H442     1.0000 0.90200  0.52620  0.84640  Biso   1.000  H
  C656     1.0000 0.95460  0.54700  0.74610  Biso   1.000  C
  H443     1.0000 0.94980  0.54500  0.71320  Biso   1.000  H
  C657     1.0000 0.91920  0.53130  0.77700  Biso   1.000  C
  C658     1.0000 0.99640  0.56540  0.76290  Biso   1.000  C
  H444     1.0000 0.02070  0.57330  0.74160  Biso   1.000  H
  H445     1.0000 0.87690  0.47390  0.76340  Biso   1.000  H
  C659     1.0000 0.04640  0.59610  0.83030  Biso   1.000  C
  O177     1.0000 0.08360  0.59760  0.80370  Biso   1.000  O
  O178     1.0000 0.04840  0.61350  0.87210  Biso   1.000  O
  C660     1.0000 0.00330  0.07240  0.31150  Biso   1.000  C
  C661     1.0000 0.96700  0.05700  0.34400  Biso   1.000  C
  H446     1.0000 0.97100  0.06060  0.37680  Biso   1.000  H
  C662     1.0000 0.92570  0.03660  0.32560  Biso   1.000  C
  H447     1.0000 0.90200  0.02620  0.34640  Biso   1.000  H
  C663     1.0000 0.95460  0.04700  0.24610  Biso   1.000  C
  H448     1.0000 0.94980  0.04500  0.21320  Biso   1.000  H
  C664     1.0000 0.91920  0.03130  0.27700  Biso   1.000  C
  C665     1.0000 0.99640  0.06540  0.26290  Biso   1.000  C
  H449     1.0000 0.02070  0.07330  0.24160  Biso   1.000  H
  H450     1.0000 0.87690  0.97390  0.26340  Biso   1.000  H
  C666     1.0000 0.04640  0.09610  0.33030  Biso   1.000  C
  O179     1.0000 0.08360  0.09760  0.30370  Biso   1.000  O
  O180     1.0000 0.04840  0.11350  0.37210  Biso   1.000  O
  C667     1.0000 0.50330  0.57240  0.31150  Biso   1.000  C
  C668     1.0000 0.46700  0.55700  0.34400  Biso   1.000  C
  H451     1.0000 0.47100  0.56060  0.37680  Biso   1.000  H
  C669     1.0000 0.42570  0.53660  0.32560  Biso   1.000  C
  H452     1.0000 0.40200  0.52620  0.34640  Biso   1.000  H
  C670     1.0000 0.45460  0.54700  0.24610  Biso   1.000  C
  H453     1.0000 0.44980  0.54500  0.21320  Biso   1.000  H
  C671     1.0000 0.41920  0.53130  0.27700  Biso   1.000  C
  C672     1.0000 0.49640  0.56540  0.26290  Biso   1.000  C
  H454     1.0000 0.52070  0.57330  0.24160  Biso   1.000  H
  H455     1.0000 0.37690  0.47390  0.26340  Biso   1.000  H
  C673     1.0000 0.54640  0.59610  0.33030  Biso   1.000  C
  O181     1.0000 0.58360  0.59760  0.30370  Biso   1.000  O
  O182     1.0000 0.54840  0.61350  0.37210  Biso   1.000  O
  C674     1.0000 0.50330  0.07240  0.81150  Biso   1.000  C
  C675     1.0000 0.46700  0.05700  0.84400  Biso   1.000  C
  H456     1.0000 0.47100  0.06060  0.87680  Biso   1.000  H
  C676     1.0000 0.42570  0.03660  0.82560  Biso   1.000  C
  H457     1.0000 0.40200  0.02620  0.84640  Biso   1.000  H
  C677     1.0000 0.45460  0.04700  0.74610  Biso   1.000  C
  H458     1.0000 0.44980  0.04500  0.71320  Biso   1.000  H
  C678     1.0000 0.41920  0.03130  0.77700  Biso   1.000  C
  C679     1.0000 0.49640  0.06540  0.76290  Biso   1.000  C
  H459     1.0000 0.52070  0.07330  0.74160  Biso   1.000  H
  H460     1.0000 0.37690  0.97390  0.76340  Biso   1.000  H
  C680     1.0000 0.54640  0.09610  0.83030  Biso   1.000  C
  O183     1.0000 0.58360  0.09760  0.80370  Biso   1.000  O
  O184     1.0000 0.54840  0.11350  0.87210  Biso   1.000  O
  C681     1.0000 0.07240  0.18850  0.49670  Biso   1.000  C
  C682     1.0000 0.05700  0.15600  0.53300  Biso   1.000  C
  H461     1.0000 0.06060  0.12320  0.52900  Biso   1.000  H
  C683     1.0000 0.03660  0.17440  0.57430  Biso   1.000  C
  H462     1.0000 0.02620  0.15360  0.59800  Biso   1.000  H
  C684     1.0000 0.04700  0.25390  0.54540  Biso   1.000  C
  H463     1.0000 0.04500  0.28680  0.55020  Biso   1.000  H
  C685     1.0000 0.03130  0.22300  0.58080  Biso   1.000  C
  C686     1.0000 0.06540  0.23710  0.50360  Biso   1.000  C
  H464     1.0000 0.07330  0.25840  0.47930  Biso   1.000  H
  H465     1.0000 0.97390  0.23660  0.62310  Biso   1.000  H
  C687     1.0000 0.09610  0.16970  0.45360  Biso   1.000  C
  O185     1.0000 0.09760  0.19630  0.41640  Biso   1.000  O
  O186     1.0000 0.11350  0.12790  0.45160  Biso   1.000  O
  C688     1.0000 0.07240  0.68850  0.99670  Biso   1.000  C
  C689     1.0000 0.05700  0.65600  0.03300  Biso   1.000  C
  H466     1.0000 0.06060  0.62320  0.02900  Biso   1.000  H
  C690     1.0000 0.03660  0.67440  0.07430  Biso   1.000  C
  H467     1.0000 0.02620  0.65360  0.09800  Biso   1.000  H
  C691     1.0000 0.04700  0.75390  0.04540  Biso   1.000  C
  H468     1.0000 0.04500  0.78680  0.05020  Biso   1.000  H
  C692     1.0000 0.03130  0.72300  0.08080  Biso   1.000  C
  C693     1.0000 0.06540  0.73710  0.00360  Biso   1.000  C
  H469     1.0000 0.07330  0.75840  0.97930  Biso   1.000  H
  H470     1.0000 0.97390  0.73660  0.12310  Biso   1.000  H
  C694     1.0000 0.09610  0.66970  0.95360  Biso   1.000  C
  O187     1.0000 0.09760  0.69630  0.91640  Biso   1.000  O
  O188     1.0000 0.11350  0.62790  0.95160  Biso   1.000  O
  C695     1.0000 0.57240  0.18850  0.99670  Biso   1.000  C
  C696     1.0000 0.55700  0.15600  0.03300  Biso   1.000  C
  H471     1.0000 0.56060  0.12320  0.02900  Biso   1.000  H
  C697     1.0000 0.53660  0.17440  0.07430  Biso   1.000  C
  H472     1.0000 0.52620  0.15360  0.09800  Biso   1.000  H
  C698     1.0000 0.54700  0.25390  0.04540  Biso   1.000  C
  H473     1.0000 0.54500  0.28680  0.05020  Biso   1.000  H
  C699     1.0000 0.53130  0.22300  0.08080  Biso   1.000  C
  C700     1.0000 0.56540  0.23710  0.00360  Biso   1.000  C
  H474     1.0000 0.57330  0.25840  0.97930  Biso   1.000  H
  H475     1.0000 0.47390  0.23660  0.12310  Biso   1.000  H
  C701     1.0000 0.59610  0.16970  0.95360  Biso   1.000  C
  O189     1.0000 0.59760  0.19630  0.91640  Biso   1.000  O
  O190     1.0000 0.61350  0.12790  0.95160  Biso   1.000  O
  C702     1.0000 0.57240  0.68850  0.49670  Biso   1.000  C
  C703     1.0000 0.55700  0.65600  0.53300  Biso   1.000  C
  H476     1.0000 0.56060  0.62320  0.52900  Biso   1.000  H
  C704     1.0000 0.53660  0.67440  0.57430  Biso   1.000  C
  H477     1.0000 0.52620  0.65360  0.59800  Biso   1.000  H
  C705     1.0000 0.54700  0.75390  0.54540  Biso   1.000  C
  H478     1.0000 0.54500  0.78680  0.55020  Biso   1.000  H
  C706     1.0000 0.53130  0.72300  0.58080  Biso   1.000  C
  C707     1.0000 0.56540  0.73710  0.50360  Biso   1.000  C
  H479     1.0000 0.57330  0.75840  0.47930  Biso   1.000  H
  H480     1.0000 0.47390  0.73660  0.62310  Biso   1.000  H
  C708     1.0000 0.59610  0.66970  0.45360  Biso   1.000  C
  O191     1.0000 0.59760  0.69630  0.41640  Biso   1.000  O
  O192     1.0000 0.61350  0.62790  0.45160  Biso   1.000  O
  C709     1.0000 0.87500  0.50810  0.75810  Biso   1.000  C
  C710     1.0000 0.87500  0.00810  0.25810  Biso   1.000  C
  C711     1.0000 0.37500  0.50810  0.25810  Biso   1.000  C
  C712     1.0000 0.37500  0.00810  0.75810  Biso   1.000  C
  C713     1.0000 0.74190  0.37500  0.49190  Biso   1.000  C
  C714     1.0000 0.74190  0.87500  0.99190  Biso   1.000  C
  C715     1.0000 0.24190  0.37500  0.99190  Biso   1.000  C
  C716     1.0000 0.24190  0.87500  0.49190  Biso   1.000  C
  C717     1.0000 0.00810  0.24190  0.62500  Biso   1.000  C
  C718     1.0000 0.00810  0.74190  0.12500  Biso   1.000  C
  C719     1.0000 0.50810  0.24190  0.12500  Biso   1.000  C
  C720     1.0000 0.50810  0.74190  0.62500  Biso   1.000  C
  Tb25     1.0000 0.61731  0.61731  0.88269  Biso   1.000  Tb
  Tb26     1.0000 0.61731  0.11731  0.38269  Biso   1.000  Tb
  Tb27     1.0000 0.11731  0.11731  0.88269  Biso   1.000  Tb
  Tb28     1.0000 0.11731  0.61731  0.38269  Biso   1.000  Tb
  Tb29     1.0000 0.63269  0.63269  0.36731  Biso   1.000  Tb
  Tb30     1.0000 0.63269  0.13269  0.86731  Biso   1.000  Tb
  Tb31     1.0000 0.13269  0.63269  0.86731  Biso   1.000  Tb
  Tb32     1.0000 0.13269  0.13269  0.36731  Biso   1.000  Tb
