data_image0
_cell_length_a       36.4984
_cell_length_b       36.4984
_cell_length_c       10.5148
_cell_angle_alpha    90
_cell_angle_beta     90
_cell_angle_gamma    120

_symmetry_space_group_name_H-M    "P 1"
_symmetry_int_tables_number       1

loop_
  _symmetry_equiv_pos_as_xyz
  'x, y, z'

loop_
  _atom_site_label
  _atom_site_occupancy
  _atom_site_fract_x
  _atom_site_fract_y
  _atom_site_fract_z
  _atom_site_thermal_displace_type
  _atom_site_B_iso_or_equiv
  _atom_site_type_symbol
  N1       1.0000 0.45886  0.01925  0.07460  Biso   1.000  N
  C1       1.0000 0.34604  0.94745  0.95980  Biso   1.000  C
  C2       1.0000 0.39294  0.96559  0.96770  Biso   1.000  C
  N2       1.0000 0.54946  0.04627  0.10870  Biso   1.000  N
  C3       1.0000 0.25771  0.90615  0.93520  Biso   1.000  C
  C4       1.0000 0.41618  0.00044  0.04890  Biso   1.000  C
  C5       1.0000 0.50989  0.07643  0.21460  Biso   1.000  C
  C6       1.0000 0.39951  0.02225  0.12090  Biso   1.000  C
  H1       1.0000 0.37100  0.01620  0.12060  Biso   1.000  H
  C7       1.0000 0.43183  0.05309  0.18960  Biso   1.000  C
  H2       1.0000 0.42990  0.07240  0.24570  Biso   1.000  H
  C8       1.0000 0.38474  0.90793  0.81550  Biso   1.000  C
  H3       1.0000 0.35510  0.89430  0.80090  Biso   1.000  H
  C9       1.0000 0.32757  0.95296  0.85130  Biso   1.000  C
  H4       1.0000 0.34500  0.97070  0.78450  Biso   1.000  H
  C10      1.0000 0.46946  0.05118  0.16220  Biso   1.000  C
  C11      1.0000 0.40888  0.94407  0.89590  Biso   1.000  C
  C12      1.0000 0.54651  0.07475  0.18870  Biso   1.000  C
  C13      1.0000 0.27636  0.90123  0.04310  Biso   1.000  C
  H5       1.0000 0.25890  0.88350  0.10970  Biso   1.000  H
  C14      1.0000 0.41176  0.89682  0.76430  Biso   1.000  C
  H6       1.0000 0.40440  0.87410  0.70700  Biso   1.000  H
  C15      1.0000 0.31993  0.92154  0.05640  Biso   1.000  C
  H7       1.0000 0.33200  0.91780  0.13170  Biso   1.000  H
  C16      1.0000 0.51559  0.11038  0.30790  Biso   1.000  C
  C17      1.0000 0.28387  0.93275  0.83990  Biso   1.000  C
  H8       1.0000 0.27170  0.93720  0.76590  Biso   1.000  H
  C18      1.0000 0.52979  0.18104  0.35320  Biso   1.000  C
  H9       1.0000 0.53400  0.20740  0.32300  Biso   1.000  H
  C19      1.0000 0.21033  0.88266  0.91940  Biso   1.000  C
  H10      1.0000 0.19990  0.90270  0.92500  Biso   1.000  H
  H11      1.0000 0.19740  0.86140  0.98660  Biso   1.000  H
  H12      1.0000 0.20290  0.86870  0.83620  Biso   1.000  H
  C20      1.0000 0.51806  0.10457  0.43580  Biso   1.000  C
  H13      1.0000 0.51430  0.07830  0.46560  Biso   1.000  H
  C21      1.0000 0.53210  0.17496  0.48210  Biso   1.000  C
  C22      1.0000 0.52134  0.14883  0.26770  Biso   1.000  C
  H14      1.0000 0.51950  0.15340  0.17960  Biso   1.000  H
  C23      1.0000 0.52602  0.13667  0.52330  Biso   1.000  C
  H15      1.0000 0.52720  0.13190  0.61160  Biso   1.000  H
  C24      1.0000 0.54076  0.21022  0.57560  Biso   1.000  C
  H16      1.0000 0.56390  0.21470  0.63250  Biso   1.000  H
  H17      1.0000 0.51520  0.20230  0.62570  Biso   1.000  H
  H18      1.0000 0.54870  0.23640  0.52870  Biso   1.000  H
  N3       1.0000 0.54114  0.98075  0.92540  Biso   1.000  N
  C25      1.0000 0.65396  0.05255  0.04020  Biso   1.000  C
  C26      1.0000 0.60706  0.03441  0.03230  Biso   1.000  C
  N4       1.0000 0.45054  0.95373  0.89130  Biso   1.000  N
  C27      1.0000 0.74229  0.09385  0.06480  Biso   1.000  C
  C28      1.0000 0.58382  0.99956  0.95110  Biso   1.000  C
  C29      1.0000 0.49011  0.92357  0.78540  Biso   1.000  C
  C30      1.0000 0.60049  0.97775  0.87910  Biso   1.000  C
  H19      1.0000 0.62900  0.98380  0.87940  Biso   1.000  H
  C31      1.0000 0.56817  0.94691  0.81040  Biso   1.000  C
  H20      1.0000 0.57010  0.92760  0.75430  Biso   1.000  H
  C32      1.0000 0.61526  0.09207  0.18450  Biso   1.000  C
  H21      1.0000 0.64490  0.10570  0.19910  Biso   1.000  H
  C33      1.0000 0.67243  0.04704  0.14870  Biso   1.000  C
  H22      1.0000 0.65500  0.02930  0.21550  Biso   1.000  H
  C34      1.0000 0.53054  0.94882  0.83780  Biso   1.000  C
  C35      1.0000 0.59112  0.05593  0.10410  Biso   1.000  C
  C36      1.0000 0.45349  0.92525  0.81130  Biso   1.000  C
  C37      1.0000 0.72364  0.09877  0.95690  Biso   1.000  C
  H23      1.0000 0.74110  0.11650  0.89030  Biso   1.000  H
  C38      1.0000 0.58824  0.10318  0.23570  Biso   1.000  C
  H24      1.0000 0.59560  0.12590  0.29300  Biso   1.000  H
  C39      1.0000 0.68007  0.07846  0.94360  Biso   1.000  C
  H25      1.0000 0.66800  0.08220  0.86830  Biso   1.000  H
  C40      1.0000 0.48441  0.88962  0.69210  Biso   1.000  C
  C41      1.0000 0.71613  0.06725  0.16010  Biso   1.000  C
  H26      1.0000 0.72830  0.06280  0.23410  Biso   1.000  H
  C42      1.0000 0.47021  0.81896  0.64680  Biso   1.000  C
  H27      1.0000 0.46600  0.79260  0.67700  Biso   1.000  H
  C43      1.0000 0.78967  0.11734  0.08060  Biso   1.000  C
  H28      1.0000 0.80010  0.09730  0.07500  Biso   1.000  H
  H29      1.0000 0.80260  0.13860  0.01340  Biso   1.000  H
  H30      1.0000 0.79710  0.13130  0.16380  Biso   1.000  H
  C44      1.0000 0.48194  0.89543  0.56420  Biso   1.000  C
  H31      1.0000 0.48570  0.92170  0.53440  Biso   1.000  H
  C45      1.0000 0.46790  0.82504  0.51790  Biso   1.000  C
  C46      1.0000 0.47866  0.85117  0.73230  Biso   1.000  C
  H32      1.0000 0.48050  0.84660  0.82040  Biso   1.000  H
  C47      1.0000 0.47398  0.86333  0.47670  Biso   1.000  C
  H33      1.0000 0.47280  0.86810  0.38840  Biso   1.000  H
  C48      1.0000 0.45924  0.78978  0.42440  Biso   1.000  C
  H34      1.0000 0.43610  0.78530  0.36750  Biso   1.000  H
  H35      1.0000 0.48480  0.79770  0.37430  Biso   1.000  H
  H36      1.0000 0.45130  0.76360  0.47130  Biso   1.000  H
  Sn1      1.0000 0.50000  0.00000  0.00000  Biso   1.000  Sn
  N5       1.0000 0.12553  0.35258  0.40793  Biso   1.000  N
  C49      1.0000 0.01271  0.28078  0.29313  Biso   1.000  C
  C50      1.0000 0.05961  0.29892  0.30103  Biso   1.000  C
  N6       1.0000 0.21613  0.37960  0.44203  Biso   1.000  N
  C51      1.0000 0.92438  0.23948  0.26853  Biso   1.000  C
  C52      1.0000 0.08285  0.33377  0.38223  Biso   1.000  C
  C53      1.0000 0.17656  0.40976  0.54793  Biso   1.000  C
  C54      1.0000 0.06618  0.35558  0.45423  Biso   1.000  C
  H37      1.0000 0.03767  0.34953  0.45393  Biso   1.000  H
  C55      1.0000 0.09850  0.38642  0.52293  Biso   1.000  C
  H38      1.0000 0.09657  0.40573  0.57903  Biso   1.000  H
  C56      1.0000 0.05141  0.24126  0.14883  Biso   1.000  C
  H39      1.0000 0.02177  0.22763  0.13423  Biso   1.000  H
  C57      1.0000 0.99424  0.28629  0.18463  Biso   1.000  C
  H40      1.0000 0.01167  0.30403  0.11783  Biso   1.000  H
  C58      1.0000 0.13613  0.38451  0.49553  Biso   1.000  C
  C59      1.0000 0.07555  0.27740  0.22923  Biso   1.000  C
  C60      1.0000 0.21318  0.40808  0.52203  Biso   1.000  C
  C61      1.0000 0.94303  0.23456  0.37643  Biso   1.000  C
  H41      1.0000 0.92557  0.21683  0.44303  Biso   1.000  H
  C62      1.0000 0.07843  0.23015  0.09763  Biso   1.000  C
  H42      1.0000 0.07107  0.20743  0.04033  Biso   1.000  H
  C63      1.0000 0.98660  0.25487  0.38973  Biso   1.000  C
  H43      1.0000 0.99867  0.25113  0.46503  Biso   1.000  H
  C64      1.0000 0.18226  0.44371  0.64123  Biso   1.000  C
  C65      1.0000 0.95054  0.26608  0.17323  Biso   1.000  C
  H44      1.0000 0.93837  0.27053  0.09923  Biso   1.000  H
  C66      1.0000 0.19646  0.51437  0.68653  Biso   1.000  C
  H45      1.0000 0.20067  0.54073  0.65633  Biso   1.000  H
  C67      1.0000 0.87700  0.21599  0.25273  Biso   1.000  C
  H46      1.0000 0.86657  0.23603  0.25833  Biso   1.000  H
  H47      1.0000 0.86407  0.19473  0.31993  Biso   1.000  H
  H48      1.0000 0.86957  0.20203  0.16953  Biso   1.000  H
  C68      1.0000 0.18473  0.43790  0.76913  Biso   1.000  C
  H49      1.0000 0.18097  0.41163  0.79893  Biso   1.000  H
  C69      1.0000 0.19877  0.50829  0.81543  Biso   1.000  C
  C70      1.0000 0.18801  0.48216  0.60103  Biso   1.000  C
  H50      1.0000 0.18617  0.48673  0.51293  Biso   1.000  H
  C71      1.0000 0.19269  0.47000  0.85663  Biso   1.000  C
  H51      1.0000 0.19387  0.46523  0.94493  Biso   1.000  H
  C72      1.0000 0.20743  0.54355  0.90893  Biso   1.000  C
  H52      1.0000 0.23057  0.54803  0.96583  Biso   1.000  H
  H53      1.0000 0.18187  0.53563  0.95903  Biso   1.000  H
  H54      1.0000 0.21537  0.56973  0.86203  Biso   1.000  H
  N7       1.0000 0.20781  0.31408  0.25873  Biso   1.000  N
  C73      1.0000 0.32063  0.38588  0.37353  Biso   1.000  C
  C74      1.0000 0.27373  0.36774  0.36563  Biso   1.000  C
  N8       1.0000 0.11721  0.28706  0.22463  Biso   1.000  N
  C75      1.0000 0.40896  0.42718  0.39813  Biso   1.000  C
  C76      1.0000 0.25049  0.33289  0.28443  Biso   1.000  C
  C77      1.0000 0.15678  0.25690  0.11873  Biso   1.000  C
  C78      1.0000 0.26716  0.31108  0.21243  Biso   1.000  C
  H55      1.0000 0.29567  0.31713  0.21273  Biso   1.000  H
  C79      1.0000 0.23484  0.28024  0.14373  Biso   1.000  C
  H56      1.0000 0.23677  0.26093  0.08763  Biso   1.000  H
  C80      1.0000 0.28193  0.42540  0.51783  Biso   1.000  C
  H57      1.0000 0.31157  0.43903  0.53243  Biso   1.000  H
  C81      1.0000 0.33910  0.38037  0.48203  Biso   1.000  C
  H58      1.0000 0.32167  0.36263  0.54883  Biso   1.000  H
  C82      1.0000 0.19721  0.28215  0.17113  Biso   1.000  C
  C83      1.0000 0.25779  0.38926  0.43743  Biso   1.000  C
  C84      1.0000 0.12016  0.25858  0.14463  Biso   1.000  C
  C85      1.0000 0.39031  0.43210  0.29023  Biso   1.000  C
  H59      1.0000 0.40777  0.44983  0.22363  Biso   1.000  H
  C86      1.0000 0.25491  0.43651  0.56903  Biso   1.000  C
  H60      1.0000 0.26227  0.45923  0.62633  Biso   1.000  H
  C87      1.0000 0.34674  0.41179  0.27693  Biso   1.000  C
  H61      1.0000 0.33467  0.41553  0.20163  Biso   1.000  H
  C88      1.0000 0.15108  0.22295  0.02543  Biso   1.000  C
  C89      1.0000 0.38280  0.40058  0.49343  Biso   1.000  C
  H62      1.0000 0.39497  0.39613  0.56743  Biso   1.000  H
  C90      1.0000 0.13688  0.15229  0.98013  Biso   1.000  C
  H63      1.0000 0.13267  0.12593  0.01033  Biso   1.000  H
  C91      1.0000 0.45634  0.45067  0.41393  Biso   1.000  C
  H64      1.0000 0.46677  0.43063  0.40833  Biso   1.000  H
  H65      1.0000 0.46927  0.47193  0.34673  Biso   1.000  H
  H66      1.0000 0.46377  0.46463  0.49713  Biso   1.000  H
  C92      1.0000 0.14861  0.22876  0.89753  Biso   1.000  C
  H67      1.0000 0.15237  0.25503  0.86773  Biso   1.000  H
  C93      1.0000 0.13457  0.15837  0.85123  Biso   1.000  C
  C94      1.0000 0.14533  0.18450  0.06563  Biso   1.000  C
  H68      1.0000 0.14717  0.17993  0.15373  Biso   1.000  H
  C95      1.0000 0.14065  0.19666  0.81003  Biso   1.000  C
  H69      1.0000 0.13947  0.20143  0.72173  Biso   1.000  H
  C96      1.0000 0.12591  0.12311  0.75773  Biso   1.000  C
  H70      1.0000 0.10277  0.11863  0.70083  Biso   1.000  H
  H71      1.0000 0.15147  0.13103  0.70763  Biso   1.000  H
  H72      1.0000 0.11797  0.09693  0.80463  Biso   1.000  H
  Sn2      1.0000 0.16667  0.33333  0.33333  Biso   1.000  Sn
  N9       1.0000 0.79219  0.68592  0.74127  Biso   1.000  N
  C97      1.0000 0.67937  0.61412  0.62647  Biso   1.000  C
  C98      1.0000 0.72627  0.63226  0.63437  Biso   1.000  C
  N10      1.0000 0.88279  0.71294  0.77537  Biso   1.000  N
  C99      1.0000 0.59104  0.57282  0.60187  Biso   1.000  C
  C100     1.0000 0.74951  0.66711  0.71557  Biso   1.000  C
  C101     1.0000 0.84322  0.74310  0.88127  Biso   1.000  C
  C102     1.0000 0.73284  0.68892  0.78757  Biso   1.000  C
  H73      1.0000 0.70433  0.68287  0.78727  Biso   1.000  H
  C103     1.0000 0.76516  0.71976  0.85627  Biso   1.000  C
  H74      1.0000 0.76323  0.73907  0.91237  Biso   1.000  H
  C104     1.0000 0.71807  0.57460  0.48217  Biso   1.000  C
  H75      1.0000 0.68843  0.56097  0.46757  Biso   1.000  H
  C105     1.0000 0.66090  0.61963  0.51797  Biso   1.000  C
  H76      1.0000 0.67833  0.63737  0.45117  Biso   1.000  H
  C106     1.0000 0.80279  0.71785  0.82887  Biso   1.000  C
  C107     1.0000 0.74221  0.61074  0.56257  Biso   1.000  C
  C108     1.0000 0.87984  0.74142  0.85537  Biso   1.000  C
  C109     1.0000 0.60969  0.56790  0.70977  Biso   1.000  C
  H77      1.0000 0.59223  0.55017  0.77637  Biso   1.000  H
  C110     1.0000 0.74509  0.56349  0.43097  Biso   1.000  C
  H78      1.0000 0.73773  0.54077  0.37367  Biso   1.000  H
  C111     1.0000 0.65326  0.58821  0.72307  Biso   1.000  C
  H79      1.0000 0.66533  0.58447  0.79837  Biso   1.000  H
  C112     1.0000 0.84892  0.77705  0.97457  Biso   1.000  C
  C113     1.0000 0.61720  0.59942  0.50657  Biso   1.000  C
  H80      1.0000 0.60503  0.60387  0.43257  Biso   1.000  H
  C114     1.0000 0.86312  0.84771  0.01987  Biso   1.000  C
  H81      1.0000 0.86733  0.87407  0.98967  Biso   1.000  H
  C115     1.0000 0.54366  0.54933  0.58607  Biso   1.000  C
  H82      1.0000 0.53323  0.56937  0.59167  Biso   1.000  H
  H83      1.0000 0.53073  0.52807  0.65327  Biso   1.000  H
  H84      1.0000 0.53623  0.53537  0.50287  Biso   1.000  H
  C116     1.0000 0.85139  0.77124  0.10247  Biso   1.000  C
  H85      1.0000 0.84763  0.74497  0.13227  Biso   1.000  H
  C117     1.0000 0.86543  0.84163  0.14877  Biso   1.000  C
  C118     1.0000 0.85467  0.81550  0.93437  Biso   1.000  C
  H86      1.0000 0.85283  0.82007  0.84627  Biso   1.000  H
  C119     1.0000 0.85935  0.80334  0.18997  Biso   1.000  C
  H87      1.0000 0.86053  0.79857  0.27827  Biso   1.000  H
  C120     1.0000 0.87409  0.87689  0.24227  Biso   1.000  C
  H88      1.0000 0.89723  0.88137  0.29917  Biso   1.000  H
  H89      1.0000 0.84853  0.86897  0.29237  Biso   1.000  H
  H90      1.0000 0.88203  0.90307  0.19537  Biso   1.000  H
  N11      1.0000 0.87447  0.64742  0.59207  Biso   1.000  N
  C121     1.0000 0.98729  0.71922  0.70687  Biso   1.000  C
  C122     1.0000 0.94039  0.70108  0.69897  Biso   1.000  C
  N12      1.0000 0.78387  0.62040  0.55797  Biso   1.000  N
  C123     1.0000 0.07562  0.76052  0.73147  Biso   1.000  C
  C124     1.0000 0.91715  0.66623  0.61777  Biso   1.000  C
  C125     1.0000 0.82344  0.59024  0.45207  Biso   1.000  C
  C126     1.0000 0.93382  0.64442  0.54577  Biso   1.000  C
  H91      1.0000 0.96233  0.65047  0.54607  Biso   1.000  H
  C127     1.0000 0.90150  0.61358  0.47707  Biso   1.000  C
  H92      1.0000 0.90343  0.59427  0.42097  Biso   1.000  H
  C128     1.0000 0.94859  0.75874  0.85117  Biso   1.000  C
  H93      1.0000 0.97823  0.77237  0.86577  Biso   1.000  H
  C129     1.0000 0.00576  0.71371  0.81537  Biso   1.000  C
  H94      1.0000 0.98833  0.69597  0.88217  Biso   1.000  H
  C130     1.0000 0.86387  0.61549  0.50447  Biso   1.000  C
  C131     1.0000 0.92445  0.72260  0.77077  Biso   1.000  C
  C132     1.0000 0.78682  0.59192  0.47797  Biso   1.000  C
  C133     1.0000 0.05697  0.76544  0.62357  Biso   1.000  C
  H95      1.0000 0.07443  0.78317  0.55697  Biso   1.000  H
  C134     1.0000 0.92157  0.76985  0.90237  Biso   1.000  C
  H96      1.0000 0.92893  0.79257  0.95967  Biso   1.000  H
  C135     1.0000 0.01340  0.74513  0.61027  Biso   1.000  C
  H97      1.0000 0.00133  0.74887  0.53497  Biso   1.000  H
  C136     1.0000 0.81774  0.55629  0.35877  Biso   1.000  C
  C137     1.0000 0.04946  0.73392  0.82677  Biso   1.000  C
  H98      1.0000 0.06163  0.72947  0.90077  Biso   1.000  H
  C138     1.0000 0.80354  0.48563  0.31347  Biso   1.000  C
  H99      1.0000 0.79933  0.45927  0.34367  Biso   1.000  H
  C139     1.0000 0.12300  0.78401  0.74727  Biso   1.000  C
  H100     1.0000 0.13343  0.76397  0.74167  Biso   1.000  H
  H101     1.0000 0.13593  0.80527  0.68007  Biso   1.000  H
  H102     1.0000 0.13043  0.79797  0.83047  Biso   1.000  H
  C140     1.0000 0.81527  0.56210  0.23087  Biso   1.000  C
  H103     1.0000 0.81903  0.58837  0.20107  Biso   1.000  H
  C141     1.0000 0.80123  0.49171  0.18457  Biso   1.000  C
  C142     1.0000 0.81199  0.51784  0.39897  Biso   1.000  C
  H104     1.0000 0.81383  0.51327  0.48707  Biso   1.000  H
  C143     1.0000 0.80731  0.53000  0.14337  Biso   1.000  C
  H105     1.0000 0.80613  0.53477  0.05507  Biso   1.000  H
  C144     1.0000 0.79257  0.45645  0.09107  Biso   1.000  C
  H106     1.0000 0.76943  0.45197  0.03417  Biso   1.000  H
  H107     1.0000 0.81813  0.46437  0.04097  Biso   1.000  H
  H108     1.0000 0.78463  0.43027  0.13797  Biso   1.000  H
  Sn3      1.0000 0.83333  0.66667  0.66667  Biso   1.000  Sn
  N13      1.0000 0.98075  0.43961  0.07460  Biso   1.000  N
  C145     1.0000 0.05255  0.39859  0.95980  Biso   1.000  C
  C146     1.0000 0.03441  0.42735  0.96770  Biso   1.000  C
  N14      1.0000 0.95373  0.50319  0.10870  Biso   1.000  N
  C147     1.0000 0.09385  0.35156  0.93520  Biso   1.000  C
  C148     1.0000 0.99956  0.41574  0.04890  Biso   1.000  C
  C149     1.0000 0.92357  0.43346  0.21460  Biso   1.000  C
  C150     1.0000 0.97775  0.37726  0.12090  Biso   1.000  C
  H109     1.0000 0.98380  0.35480  0.12060  Biso   1.000  H
  C151     1.0000 0.94691  0.37874  0.18960  Biso   1.000  C
  H110     1.0000 0.92760  0.35750  0.24570  Biso   1.000  H
  C152     1.0000 0.09207  0.47681  0.81550  Biso   1.000  C
  H111     1.0000 0.10570  0.46080  0.80090  Biso   1.000  H
  C153     1.0000 0.04704  0.37461  0.85130  Biso   1.000  C
  H112     1.0000 0.02930  0.37430  0.78450  Biso   1.000  H
  C154     1.0000 0.94882  0.41828  0.16220  Biso   1.000  C
  C155     1.0000 0.05593  0.46481  0.89590  Biso   1.000  C
  C156     1.0000 0.92525  0.47176  0.18870  Biso   1.000  C
  C157     1.0000 0.09877  0.37513  0.04310  Biso   1.000  C
  H113     1.0000 0.11650  0.37540  0.10970  Biso   1.000  H
  C158     1.0000 0.10318  0.51494  0.76430  Biso   1.000  C
  H114     1.0000 0.12590  0.53030  0.70700  Biso   1.000  H
  C159     1.0000 0.07846  0.39839  0.05640  Biso   1.000  C
  H115     1.0000 0.08220  0.41420  0.13170  Biso   1.000  H
  C160     1.0000 0.88962  0.40521  0.30790  Biso   1.000  C
  C161     1.0000 0.06725  0.35112  0.83990  Biso   1.000  C
  H116     1.0000 0.06280  0.33450  0.76590  Biso   1.000  H
  C162     1.0000 0.81896  0.34875  0.35320  Biso   1.000  C
  H117     1.0000 0.79260  0.32660  0.32300  Biso   1.000  H
  C163     1.0000 0.11734  0.32767  0.91940  Biso   1.000  C
  H118     1.0000 0.09730  0.29720  0.92500  Biso   1.000  H
  H119     1.0000 0.13860  0.33600  0.98660  Biso   1.000  H
  H120     1.0000 0.13130  0.33420  0.83620  Biso   1.000  H
  C164     1.0000 0.89543  0.41349  0.43580  Biso   1.000  C
  H121     1.0000 0.92170  0.43600  0.46560  Biso   1.000  H
  C165     1.0000 0.82504  0.35714  0.48210  Biso   1.000  C
  C166     1.0000 0.85117  0.37251  0.26770  Biso   1.000  C
  H122     1.0000 0.84660  0.36610  0.17960  Biso   1.000  H
  C167     1.0000 0.86333  0.38935  0.52330  Biso   1.000  C
  H123     1.0000 0.86810  0.39530  0.61160  Biso   1.000  H
  C168     1.0000 0.78978  0.33054  0.57560  Biso   1.000  C
  H124     1.0000 0.78530  0.34920  0.63250  Biso   1.000  H
  H125     1.0000 0.79770  0.31290  0.62570  Biso   1.000  H
  H126     1.0000 0.76360  0.31230  0.52870  Biso   1.000  H
  N15      1.0000 0.01925  0.56039  0.92540  Biso   1.000  N
  C169     1.0000 0.94745  0.60141  0.04020  Biso   1.000  C
  C170     1.0000 0.96559  0.57265  0.03230  Biso   1.000  C
  N16      1.0000 0.04627  0.49681  0.89130  Biso   1.000  N
  C171     1.0000 0.90615  0.64844  0.06480  Biso   1.000  C
  C172     1.0000 0.00044  0.58426  0.95110  Biso   1.000  C
  C173     1.0000 0.07643  0.56654  0.78540  Biso   1.000  C
  C174     1.0000 0.02225  0.62274  0.87910  Biso   1.000  C
  H127     1.0000 0.01620  0.64520  0.87940  Biso   1.000  H
  C175     1.0000 0.05309  0.62126  0.81040  Biso   1.000  C
  H128     1.0000 0.07240  0.64250  0.75430  Biso   1.000  H
  C176     1.0000 0.90793  0.52319  0.18450  Biso   1.000  C
  H129     1.0000 0.89430  0.53920  0.19910  Biso   1.000  H
  C177     1.0000 0.95296  0.62539  0.14870  Biso   1.000  C
  H130     1.0000 0.97070  0.62570  0.21550  Biso   1.000  H
  C178     1.0000 0.05118  0.58172  0.83780  Biso   1.000  C
  C179     1.0000 0.94407  0.53519  0.10410  Biso   1.000  C
  C180     1.0000 0.07475  0.52824  0.81130  Biso   1.000  C
  C181     1.0000 0.90123  0.62487  0.95690  Biso   1.000  C
  H131     1.0000 0.88350  0.62460  0.89030  Biso   1.000  H
  C182     1.0000 0.89682  0.48506  0.23570  Biso   1.000  C
  H132     1.0000 0.87410  0.46970  0.29300  Biso   1.000  H
  C183     1.0000 0.92154  0.60161  0.94360  Biso   1.000  C
  H133     1.0000 0.91780  0.58580  0.86830  Biso   1.000  H
  C184     1.0000 0.11038  0.59479  0.69210  Biso   1.000  C
  C185     1.0000 0.93275  0.64888  0.16010  Biso   1.000  C
  H134     1.0000 0.93720  0.66550  0.23410  Biso   1.000  H
  C186     1.0000 0.18104  0.65125  0.64680  Biso   1.000  C
  H135     1.0000 0.20740  0.67340  0.67700  Biso   1.000  H
  C187     1.0000 0.88266  0.67233  0.08060  Biso   1.000  C
  H136     1.0000 0.90270  0.70280  0.07500  Biso   1.000  H
  H137     1.0000 0.86140  0.66400  0.01340  Biso   1.000  H
  H138     1.0000 0.86870  0.66580  0.16380  Biso   1.000  H
  C188     1.0000 0.10457  0.58651  0.56420  Biso   1.000  C
  H139     1.0000 0.07830  0.56400  0.53440  Biso   1.000  H
  C189     1.0000 0.17496  0.64286  0.51790  Biso   1.000  C
  C190     1.0000 0.14883  0.62749  0.73230  Biso   1.000  C
  H140     1.0000 0.15340  0.63390  0.82040  Biso   1.000  H
  C191     1.0000 0.13667  0.61065  0.47670  Biso   1.000  C
  H141     1.0000 0.13190  0.60470  0.38840  Biso   1.000  H
  C192     1.0000 0.21022  0.66946  0.42440  Biso   1.000  C
  H142     1.0000 0.21470  0.65080  0.36750  Biso   1.000  H
  H143     1.0000 0.20230  0.68710  0.37430  Biso   1.000  H
  H144     1.0000 0.23640  0.68770  0.47130  Biso   1.000  H
  Sn4      1.0000 0.00000  0.50000  0.00000  Biso   1.000  Sn
  N17      1.0000 0.64742  0.77294  0.40793  Biso   1.000  N
  C193     1.0000 0.71922  0.73192  0.29313  Biso   1.000  C
  C194     1.0000 0.70108  0.76068  0.30103  Biso   1.000  C
  N18      1.0000 0.62040  0.83652  0.44203  Biso   1.000  N
  C195     1.0000 0.76052  0.68489  0.26853  Biso   1.000  C
  C196     1.0000 0.66623  0.74907  0.38223  Biso   1.000  C
  C197     1.0000 0.59024  0.76679  0.54793  Biso   1.000  C
  C198     1.0000 0.64442  0.71059  0.45423  Biso   1.000  C
  H145     1.0000 0.65047  0.68813  0.45393  Biso   1.000  H
  C199     1.0000 0.61358  0.71207  0.52293  Biso   1.000  C
  H146     1.0000 0.59427  0.69083  0.57903  Biso   1.000  H
  C200     1.0000 0.75874  0.81014  0.14883  Biso   1.000  C
  H147     1.0000 0.77237  0.79413  0.13423  Biso   1.000  H
  C201     1.0000 0.71371  0.70794  0.18463  Biso   1.000  C
  H148     1.0000 0.69597  0.70763  0.11783  Biso   1.000  H
  C202     1.0000 0.61549  0.75161  0.49553  Biso   1.000  C
  C203     1.0000 0.72260  0.79814  0.22923  Biso   1.000  C
  C204     1.0000 0.59192  0.80509  0.52203  Biso   1.000  C
  C205     1.0000 0.76544  0.70846  0.37643  Biso   1.000  C
  H149     1.0000 0.78317  0.70873  0.44303  Biso   1.000  H
  C206     1.0000 0.76985  0.84827  0.09763  Biso   1.000  C
  H150     1.0000 0.79257  0.86363  0.04033  Biso   1.000  H
  C207     1.0000 0.74513  0.73172  0.38973  Biso   1.000  C
  H151     1.0000 0.74887  0.74753  0.46503  Biso   1.000  H
  C208     1.0000 0.55629  0.73854  0.64123  Biso   1.000  C
  C209     1.0000 0.73392  0.68445  0.17323  Biso   1.000  C
  H152     1.0000 0.72947  0.66783  0.09923  Biso   1.000  H
  C210     1.0000 0.48563  0.68208  0.68653  Biso   1.000  C
  H153     1.0000 0.45927  0.65993  0.65633  Biso   1.000  H
  C211     1.0000 0.78401  0.66100  0.25273  Biso   1.000  C
  H154     1.0000 0.76397  0.63053  0.25833  Biso   1.000  H
  H155     1.0000 0.80527  0.66933  0.31993  Biso   1.000  H
  H156     1.0000 0.79797  0.66753  0.16953  Biso   1.000  H
  C212     1.0000 0.56210  0.74682  0.76913  Biso   1.000  C
  H157     1.0000 0.58837  0.76933  0.79893  Biso   1.000  H
  C213     1.0000 0.49171  0.69047  0.81543  Biso   1.000  C
  C214     1.0000 0.51784  0.70584  0.60103  Biso   1.000  C
  H158     1.0000 0.51327  0.69943  0.51293  Biso   1.000  H
  C215     1.0000 0.53000  0.72268  0.85663  Biso   1.000  C
  H159     1.0000 0.53477  0.72863  0.94493  Biso   1.000  H
  C216     1.0000 0.45645  0.66387  0.90893  Biso   1.000  C
  H160     1.0000 0.45197  0.68253  0.96583  Biso   1.000  H
  H161     1.0000 0.46437  0.64623  0.95903  Biso   1.000  H
  H162     1.0000 0.43027  0.64563  0.86203  Biso   1.000  H
  N19      1.0000 0.68592  0.89372  0.25873  Biso   1.000  N
  C217     1.0000 0.61412  0.93474  0.37353  Biso   1.000  C
  C218     1.0000 0.63226  0.90598  0.36563  Biso   1.000  C
  N20      1.0000 0.71294  0.83014  0.22463  Biso   1.000  N
  C219     1.0000 0.57282  0.98177  0.39813  Biso   1.000  C
  C220     1.0000 0.66711  0.91759  0.28443  Biso   1.000  C
  C221     1.0000 0.74310  0.89987  0.11873  Biso   1.000  C
  C222     1.0000 0.68892  0.95607  0.21243  Biso   1.000  C
  H163     1.0000 0.68287  0.97853  0.21273  Biso   1.000  H
  C223     1.0000 0.71976  0.95459  0.14373  Biso   1.000  C
  H164     1.0000 0.73907  0.97583  0.08763  Biso   1.000  H
  C224     1.0000 0.57460  0.85652  0.51783  Biso   1.000  C
  H165     1.0000 0.56097  0.87253  0.53243  Biso   1.000  H
  C225     1.0000 0.61963  0.95872  0.48203  Biso   1.000  C
  H166     1.0000 0.63737  0.95903  0.54883  Biso   1.000  H
  C226     1.0000 0.71785  0.91505  0.17113  Biso   1.000  C
  C227     1.0000 0.61074  0.86852  0.43743  Biso   1.000  C
  C228     1.0000 0.74142  0.86157  0.14463  Biso   1.000  C
  C229     1.0000 0.56790  0.95820  0.29023  Biso   1.000  C
  H167     1.0000 0.55017  0.95793  0.22363  Biso   1.000  H
  C230     1.0000 0.56349  0.81839  0.56903  Biso   1.000  C
  H168     1.0000 0.54077  0.80303  0.62633  Biso   1.000  H
  C231     1.0000 0.58821  0.93494  0.27693  Biso   1.000  C
  H169     1.0000 0.58447  0.91913  0.20163  Biso   1.000  H
  C232     1.0000 0.77705  0.92812  0.02543  Biso   1.000  C
  C233     1.0000 0.59942  0.98221  0.49343  Biso   1.000  C
  H170     1.0000 0.60387  0.99883  0.56743  Biso   1.000  H
  C234     1.0000 0.84771  0.98458  0.98013  Biso   1.000  C
  H171     1.0000 0.87407  0.00673  0.01033  Biso   1.000  H
  C235     1.0000 0.54933  0.00566  0.41393  Biso   1.000  C
  H172     1.0000 0.56937  0.03613  0.40833  Biso   1.000  H
  H173     1.0000 0.52807  0.99733  0.34673  Biso   1.000  H
  H174     1.0000 0.53537  0.99913  0.49713  Biso   1.000  H
  C236     1.0000 0.77124  0.91984  0.89753  Biso   1.000  C
  H175     1.0000 0.74497  0.89733  0.86773  Biso   1.000  H
  C237     1.0000 0.84163  0.97619  0.85123  Biso   1.000  C
  C238     1.0000 0.81550  0.96082  0.06563  Biso   1.000  C
  H176     1.0000 0.82007  0.96723  0.15373  Biso   1.000  H
  C239     1.0000 0.80334  0.94398  0.81003  Biso   1.000  C
  H177     1.0000 0.79857  0.93803  0.72173  Biso   1.000  H
  C240     1.0000 0.87689  0.00279  0.75773  Biso   1.000  C
  H178     1.0000 0.88137  0.98413  0.70083  Biso   1.000  H
  H179     1.0000 0.86897  0.02043  0.70763  Biso   1.000  H
  H180     1.0000 0.90307  0.02103  0.80463  Biso   1.000  H
  Sn5      1.0000 0.66667  0.83333  0.33333  Biso   1.000  Sn
  N21      1.0000 0.31408  0.10628  0.74127  Biso   1.000  N
  C241     1.0000 0.38588  0.06526  0.62647  Biso   1.000  C
  C242     1.0000 0.36774  0.09402  0.63437  Biso   1.000  C
  N22      1.0000 0.28706  0.16986  0.77537  Biso   1.000  N
  C243     1.0000 0.42718  0.01823  0.60187  Biso   1.000  C
  C244     1.0000 0.33289  0.08241  0.71557  Biso   1.000  C
  C245     1.0000 0.25690  0.10013  0.88127  Biso   1.000  C
  C246     1.0000 0.31108  0.04393  0.78757  Biso   1.000  C
  H181     1.0000 0.31713  0.02147  0.78727  Biso   1.000  H
  C247     1.0000 0.28024  0.04541  0.85627  Biso   1.000  C
  H182     1.0000 0.26093  0.02417  0.91237  Biso   1.000  H
  C248     1.0000 0.42540  0.14348  0.48217  Biso   1.000  C
  H183     1.0000 0.43903  0.12747  0.46757  Biso   1.000  H
  C249     1.0000 0.38037  0.04128  0.51797  Biso   1.000  C
  H184     1.0000 0.36263  0.04097  0.45117  Biso   1.000  H
  C250     1.0000 0.28215  0.08495  0.82887  Biso   1.000  C
  C251     1.0000 0.38926  0.13148  0.56257  Biso   1.000  C
  C252     1.0000 0.25858  0.13843  0.85537  Biso   1.000  C
  C253     1.0000 0.43210  0.04180  0.70977  Biso   1.000  C
  H185     1.0000 0.44983  0.04207  0.77637  Biso   1.000  H
  C254     1.0000 0.43651  0.18161  0.43097  Biso   1.000  C
  H186     1.0000 0.45923  0.19697  0.37367  Biso   1.000  H
  C255     1.0000 0.41179  0.06506  0.72307  Biso   1.000  C
  H187     1.0000 0.41553  0.08087  0.79837  Biso   1.000  H
  C256     1.0000 0.22295  0.07188  0.97457  Biso   1.000  C
  C257     1.0000 0.40058  0.01779  0.50657  Biso   1.000  C
  H188     1.0000 0.39613  0.00117  0.43257  Biso   1.000  H
  C258     1.0000 0.15229  0.01542  0.01987  Biso   1.000  C
  H189     1.0000 0.12593  0.99327  0.98967  Biso   1.000  H
  C259     1.0000 0.45067  0.99434  0.58607  Biso   1.000  C
  H190     1.0000 0.43063  0.96387  0.59167  Biso   1.000  H
  H191     1.0000 0.47193  0.00267  0.65327  Biso   1.000  H
  H192     1.0000 0.46463  0.00087  0.50287  Biso   1.000  H
  C260     1.0000 0.22876  0.08016  0.10247  Biso   1.000  C
  H193     1.0000 0.25503  0.10267  0.13227  Biso   1.000  H
  C261     1.0000 0.15837  0.02381  0.14877  Biso   1.000  C
  C262     1.0000 0.18450  0.03918  0.93437  Biso   1.000  C
  H194     1.0000 0.17993  0.03277  0.84627  Biso   1.000  H
  C263     1.0000 0.19666  0.05602  0.18997  Biso   1.000  C
  H195     1.0000 0.20143  0.06197  0.27827  Biso   1.000  H
  C264     1.0000 0.12311  0.99721  0.24227  Biso   1.000  C
  H196     1.0000 0.11863  0.01587  0.29917  Biso   1.000  H
  H197     1.0000 0.13103  0.97957  0.29237  Biso   1.000  H
  H198     1.0000 0.09693  0.97897  0.19537  Biso   1.000  H
  N23      1.0000 0.35258  0.22706  0.59207  Biso   1.000  N
  C265     1.0000 0.28078  0.26808  0.70687  Biso   1.000  C
  C266     1.0000 0.29892  0.23932  0.69897  Biso   1.000  C
  N24      1.0000 0.37960  0.16348  0.55797  Biso   1.000  N
  C267     1.0000 0.23948  0.31511  0.73147  Biso   1.000  C
  C268     1.0000 0.33377  0.25093  0.61777  Biso   1.000  C
  C269     1.0000 0.40976  0.23321  0.45207  Biso   1.000  C
  C270     1.0000 0.35558  0.28941  0.54577  Biso   1.000  C
  H199     1.0000 0.34953  0.31187  0.54607  Biso   1.000  H
  C271     1.0000 0.38642  0.28793  0.47707  Biso   1.000  C
  H200     1.0000 0.40573  0.30917  0.42097  Biso   1.000  H
  C272     1.0000 0.24126  0.18986  0.85117  Biso   1.000  C
  H201     1.0000 0.22763  0.20587  0.86577  Biso   1.000  H
  C273     1.0000 0.28629  0.29206  0.81537  Biso   1.000  C
  H202     1.0000 0.30403  0.29237  0.88217  Biso   1.000  H
  C274     1.0000 0.38451  0.24839  0.50447  Biso   1.000  C
  C275     1.0000 0.27740  0.20186  0.77077  Biso   1.000  C
  C276     1.0000 0.40808  0.19491  0.47797  Biso   1.000  C
  C277     1.0000 0.23456  0.29154  0.62357  Biso   1.000  C
  H203     1.0000 0.21683  0.29127  0.55697  Biso   1.000  H
  C278     1.0000 0.23015  0.15173  0.90237  Biso   1.000  C
  H204     1.0000 0.20743  0.13637  0.95967  Biso   1.000  H
  C279     1.0000 0.25487  0.26828  0.61027  Biso   1.000  C
  H205     1.0000 0.25113  0.25247  0.53497  Biso   1.000  H
  C280     1.0000 0.44371  0.26146  0.35877  Biso   1.000  C
  C281     1.0000 0.26608  0.31555  0.82677  Biso   1.000  C
  H206     1.0000 0.27053  0.33217  0.90077  Biso   1.000  H
  C282     1.0000 0.51437  0.31792  0.31347  Biso   1.000  C
  H207     1.0000 0.54073  0.34007  0.34367  Biso   1.000  H
  C283     1.0000 0.21599  0.33900  0.74727  Biso   1.000  C
  H208     1.0000 0.23603  0.36947  0.74167  Biso   1.000  H
  H209     1.0000 0.19473  0.33067  0.68007  Biso   1.000  H
  H210     1.0000 0.20203  0.33247  0.83047  Biso   1.000  H
  C284     1.0000 0.43790  0.25318  0.23087  Biso   1.000  C
  H211     1.0000 0.41163  0.23067  0.20107  Biso   1.000  H
  C285     1.0000 0.50829  0.30953  0.18457  Biso   1.000  C
  C286     1.0000 0.48216  0.29416  0.39897  Biso   1.000  C
  H212     1.0000 0.48673  0.30057  0.48707  Biso   1.000  H
  C287     1.0000 0.47000  0.27732  0.14337  Biso   1.000  C
  H213     1.0000 0.46523  0.27137  0.05507  Biso   1.000  H
  C288     1.0000 0.54355  0.33613  0.09107  Biso   1.000  C
  H214     1.0000 0.54803  0.31747  0.03417  Biso   1.000  H
  H215     1.0000 0.53563  0.35377  0.04097  Biso   1.000  H
  H216     1.0000 0.56973  0.35437  0.13797  Biso   1.000  H
  Sn6      1.0000 0.33333  0.16667  0.66667  Biso   1.000  Sn
  N25      1.0000 0.56039  0.54114  0.07460  Biso   1.000  N
  C289     1.0000 0.60141  0.65396  0.95980  Biso   1.000  C
  C290     1.0000 0.57265  0.60706  0.96770  Biso   1.000  C
  N26      1.0000 0.49681  0.45054  0.10870  Biso   1.000  N
  C291     1.0000 0.64844  0.74229  0.93520  Biso   1.000  C
  C292     1.0000 0.58426  0.58382  0.04890  Biso   1.000  C
  C293     1.0000 0.56654  0.49011  0.21460  Biso   1.000  C
  C294     1.0000 0.62274  0.60049  0.12090  Biso   1.000  C
  H217     1.0000 0.64520  0.62900  0.12060  Biso   1.000  H
  C295     1.0000 0.62126  0.56817  0.18960  Biso   1.000  C
  H218     1.0000 0.64250  0.57010  0.24570  Biso   1.000  H
  C296     1.0000 0.52319  0.61526  0.81550  Biso   1.000  C
  H219     1.0000 0.53920  0.64490  0.80090  Biso   1.000  H
  C297     1.0000 0.62539  0.67243  0.85130  Biso   1.000  C
  H220     1.0000 0.62570  0.65500  0.78450  Biso   1.000  H
  C298     1.0000 0.58172  0.53054  0.16220  Biso   1.000  C
  C299     1.0000 0.53519  0.59112  0.89590  Biso   1.000  C
  C300     1.0000 0.52824  0.45349  0.18870  Biso   1.000  C
  C301     1.0000 0.62487  0.72364  0.04310  Biso   1.000  C
  H221     1.0000 0.62460  0.74110  0.10970  Biso   1.000  H
  C302     1.0000 0.48506  0.58824  0.76430  Biso   1.000  C
  H222     1.0000 0.46970  0.59560  0.70700  Biso   1.000  H
  C303     1.0000 0.60161  0.68007  0.05640  Biso   1.000  C
  H223     1.0000 0.58580  0.66800  0.13170  Biso   1.000  H
  C304     1.0000 0.59479  0.48441  0.30790  Biso   1.000  C
  C305     1.0000 0.64888  0.71613  0.83990  Biso   1.000  C
  H224     1.0000 0.66550  0.72830  0.76590  Biso   1.000  H
  C306     1.0000 0.65125  0.47021  0.35320  Biso   1.000  C
  H225     1.0000 0.67340  0.46600  0.32300  Biso   1.000  H
  C307     1.0000 0.67233  0.78967  0.91940  Biso   1.000  C
  H226     1.0000 0.70280  0.80010  0.92500  Biso   1.000  H
  H227     1.0000 0.66400  0.80260  0.98660  Biso   1.000  H
  H228     1.0000 0.66580  0.79710  0.83620  Biso   1.000  H
  C308     1.0000 0.58651  0.48194  0.43580  Biso   1.000  C
  H229     1.0000 0.56400  0.48570  0.46560  Biso   1.000  H
  C309     1.0000 0.64286  0.46790  0.48210  Biso   1.000  C
  C310     1.0000 0.62749  0.47866  0.26770  Biso   1.000  C
  H230     1.0000 0.63390  0.48050  0.17960  Biso   1.000  H
  C311     1.0000 0.61065  0.47398  0.52330  Biso   1.000  C
  H231     1.0000 0.60470  0.47280  0.61160  Biso   1.000  H
  C312     1.0000 0.66946  0.45924  0.57560  Biso   1.000  C
  H232     1.0000 0.65080  0.43610  0.63250  Biso   1.000  H
  H233     1.0000 0.68710  0.48480  0.62570  Biso   1.000  H
  H234     1.0000 0.68770  0.45130  0.52870  Biso   1.000  H
  N27      1.0000 0.43961  0.45886  0.92540  Biso   1.000  N
  C313     1.0000 0.39859  0.34604  0.04020  Biso   1.000  C
  C314     1.0000 0.42735  0.39294  0.03230  Biso   1.000  C
  N28      1.0000 0.50319  0.54946  0.89130  Biso   1.000  N
  C315     1.0000 0.35156  0.25771  0.06480  Biso   1.000  C
  C316     1.0000 0.41574  0.41618  0.95110  Biso   1.000  C
  C317     1.0000 0.43346  0.50989  0.78540  Biso   1.000  C
  C318     1.0000 0.37726  0.39951  0.87910  Biso   1.000  C
  H235     1.0000 0.35480  0.37100  0.87940  Biso   1.000  H
  C319     1.0000 0.37874  0.43183  0.81040  Biso   1.000  C
  H236     1.0000 0.35750  0.42990  0.75430  Biso   1.000  H
  C320     1.0000 0.47681  0.38474  0.18450  Biso   1.000  C
  H237     1.0000 0.46080  0.35510  0.19910  Biso   1.000  H
  C321     1.0000 0.37461  0.32757  0.14870  Biso   1.000  C
  H238     1.0000 0.37430  0.34500  0.21550  Biso   1.000  H
  C322     1.0000 0.41828  0.46946  0.83780  Biso   1.000  C
  C323     1.0000 0.46481  0.40888  0.10410  Biso   1.000  C
  C324     1.0000 0.47176  0.54651  0.81130  Biso   1.000  C
  C325     1.0000 0.37513  0.27636  0.95690  Biso   1.000  C
  H239     1.0000 0.37540  0.25890  0.89030  Biso   1.000  H
  C326     1.0000 0.51494  0.41176  0.23570  Biso   1.000  C
  H240     1.0000 0.53030  0.40440  0.29300  Biso   1.000  H
  C327     1.0000 0.39839  0.31993  0.94360  Biso   1.000  C
  H241     1.0000 0.41420  0.33200  0.86830  Biso   1.000  H
  C328     1.0000 0.40521  0.51559  0.69210  Biso   1.000  C
  C329     1.0000 0.35112  0.28387  0.16010  Biso   1.000  C
  H242     1.0000 0.33450  0.27170  0.23410  Biso   1.000  H
  C330     1.0000 0.34875  0.52979  0.64680  Biso   1.000  C
  H243     1.0000 0.32660  0.53400  0.67700  Biso   1.000  H
  C331     1.0000 0.32767  0.21033  0.08060  Biso   1.000  C
  H244     1.0000 0.29720  0.19990  0.07500  Biso   1.000  H
  H245     1.0000 0.33600  0.19740  0.01340  Biso   1.000  H
  H246     1.0000 0.33420  0.20290  0.16380  Biso   1.000  H
  C332     1.0000 0.41349  0.51806  0.56420  Biso   1.000  C
  H247     1.0000 0.43600  0.51430  0.53440  Biso   1.000  H
  C333     1.0000 0.35714  0.53210  0.51790  Biso   1.000  C
  C334     1.0000 0.37251  0.52134  0.73230  Biso   1.000  C
  H248     1.0000 0.36610  0.51950  0.82040  Biso   1.000  H
  C335     1.0000 0.38935  0.52602  0.47670  Biso   1.000  C
  H249     1.0000 0.39530  0.52720  0.38840  Biso   1.000  H
  C336     1.0000 0.33054  0.54076  0.42440  Biso   1.000  C
  H250     1.0000 0.34920  0.56390  0.36750  Biso   1.000  H
  H251     1.0000 0.31290  0.51520  0.37430  Biso   1.000  H
  H252     1.0000 0.31230  0.54870  0.47130  Biso   1.000  H
  Sn7      1.0000 0.50000  0.50000  0.00000  Biso   1.000  Sn
  N29      1.0000 0.22706  0.87447  0.40793  Biso   1.000  N
  C337     1.0000 0.26808  0.98729  0.29313  Biso   1.000  C
  C338     1.0000 0.23932  0.94039  0.30103  Biso   1.000  C
  N30      1.0000 0.16348  0.78387  0.44203  Biso   1.000  N
  C339     1.0000 0.31511  0.07562  0.26853  Biso   1.000  C
  C340     1.0000 0.25093  0.91715  0.38223  Biso   1.000  C
  C341     1.0000 0.23321  0.82344  0.54793  Biso   1.000  C
  C342     1.0000 0.28941  0.93382  0.45423  Biso   1.000  C
  H253     1.0000 0.31187  0.96233  0.45393  Biso   1.000  H
  C343     1.0000 0.28793  0.90150  0.52293  Biso   1.000  C
  H254     1.0000 0.30917  0.90343  0.57903  Biso   1.000  H
  C344     1.0000 0.18986  0.94859  0.14883  Biso   1.000  C
  H255     1.0000 0.20587  0.97823  0.13423  Biso   1.000  H
  C345     1.0000 0.29206  0.00576  0.18463  Biso   1.000  C
  H256     1.0000 0.29237  0.98833  0.11783  Biso   1.000  H
  C346     1.0000 0.24839  0.86387  0.49553  Biso   1.000  C
  C347     1.0000 0.20186  0.92445  0.22923  Biso   1.000  C
  C348     1.0000 0.19491  0.78682  0.52203  Biso   1.000  C
  C349     1.0000 0.29154  0.05697  0.37643  Biso   1.000  C
  H257     1.0000 0.29127  0.07443  0.44303  Biso   1.000  H
  C350     1.0000 0.15173  0.92157  0.09763  Biso   1.000  C
  H258     1.0000 0.13637  0.92893  0.04033  Biso   1.000  H
  C351     1.0000 0.26828  0.01340  0.38973  Biso   1.000  C
  H259     1.0000 0.25247  0.00133  0.46503  Biso   1.000  H
  C352     1.0000 0.26146  0.81774  0.64123  Biso   1.000  C
  C353     1.0000 0.31555  0.04946  0.17323  Biso   1.000  C
  H260     1.0000 0.33217  0.06163  0.09923  Biso   1.000  H
  C354     1.0000 0.31792  0.80354  0.68653  Biso   1.000  C
  H261     1.0000 0.34007  0.79933  0.65633  Biso   1.000  H
  C355     1.0000 0.33900  0.12300  0.25273  Biso   1.000  C
  H262     1.0000 0.36947  0.13343  0.25833  Biso   1.000  H
  H263     1.0000 0.33067  0.13593  0.31993  Biso   1.000  H
  H264     1.0000 0.33247  0.13043  0.16953  Biso   1.000  H
  C356     1.0000 0.25318  0.81527  0.76913  Biso   1.000  C
  H265     1.0000 0.23067  0.81903  0.79893  Biso   1.000  H
  C357     1.0000 0.30953  0.80123  0.81543  Biso   1.000  C
  C358     1.0000 0.29416  0.81199  0.60103  Biso   1.000  C
  H266     1.0000 0.30057  0.81383  0.51293  Biso   1.000  H
  C359     1.0000 0.27732  0.80731  0.85663  Biso   1.000  C
  H267     1.0000 0.27137  0.80613  0.94493  Biso   1.000  H
  C360     1.0000 0.33613  0.79257  0.90893  Biso   1.000  C
  H268     1.0000 0.31747  0.76943  0.96583  Biso   1.000  H
  H269     1.0000 0.35377  0.81813  0.95903  Biso   1.000  H
  H270     1.0000 0.35437  0.78463  0.86203  Biso   1.000  H
  N31      1.0000 0.10628  0.79219  0.25873  Biso   1.000  N
  C361     1.0000 0.06526  0.67937  0.37353  Biso   1.000  C
  C362     1.0000 0.09402  0.72627  0.36563  Biso   1.000  C
  N32      1.0000 0.16986  0.88279  0.22463  Biso   1.000  N
  C363     1.0000 0.01823  0.59104  0.39813  Biso   1.000  C
  C364     1.0000 0.08241  0.74951  0.28443  Biso   1.000  C
  C365     1.0000 0.10013  0.84322  0.11873  Biso   1.000  C
  C366     1.0000 0.04393  0.73284  0.21243  Biso   1.000  C
  H271     1.0000 0.02147  0.70433  0.21273  Biso   1.000  H
  C367     1.0000 0.04541  0.76516  0.14373  Biso   1.000  C
  H272     1.0000 0.02417  0.76323  0.08763  Biso   1.000  H
  C368     1.0000 0.14348  0.71807  0.51783  Biso   1.000  C
  H273     1.0000 0.12747  0.68843  0.53243  Biso   1.000  H
  C369     1.0000 0.04128  0.66090  0.48203  Biso   1.000  C
  H274     1.0000 0.04097  0.67833  0.54883  Biso   1.000  H
  C370     1.0000 0.08495  0.80279  0.17113  Biso   1.000  C
  C371     1.0000 0.13148  0.74221  0.43743  Biso   1.000  C
  C372     1.0000 0.13843  0.87984  0.14463  Biso   1.000  C
  C373     1.0000 0.04180  0.60969  0.29023  Biso   1.000  C
  H275     1.0000 0.04207  0.59223  0.22363  Biso   1.000  H
  C374     1.0000 0.18161  0.74509  0.56903  Biso   1.000  C
  H276     1.0000 0.19697  0.73773  0.62633  Biso   1.000  H
  C375     1.0000 0.06506  0.65326  0.27693  Biso   1.000  C
  H277     1.0000 0.08087  0.66533  0.20163  Biso   1.000  H
  C376     1.0000 0.07188  0.84892  0.02543  Biso   1.000  C
  C377     1.0000 0.01779  0.61720  0.49343  Biso   1.000  C
  H278     1.0000 0.00117  0.60503  0.56743  Biso   1.000  H
  C378     1.0000 0.01542  0.86312  0.98013  Biso   1.000  C
  H279     1.0000 0.99327  0.86733  0.01033  Biso   1.000  H
  C379     1.0000 0.99434  0.54366  0.41393  Biso   1.000  C
  H280     1.0000 0.96387  0.53323  0.40833  Biso   1.000  H
  H281     1.0000 0.00267  0.53073  0.34673  Biso   1.000  H
  H282     1.0000 0.00087  0.53623  0.49713  Biso   1.000  H
  C380     1.0000 0.08016  0.85139  0.89753  Biso   1.000  C
  H283     1.0000 0.10267  0.84763  0.86773  Biso   1.000  H
  C381     1.0000 0.02381  0.86543  0.85123  Biso   1.000  C
  C382     1.0000 0.03918  0.85467  0.06563  Biso   1.000  C
  H284     1.0000 0.03277  0.85283  0.15373  Biso   1.000  H
  C383     1.0000 0.05602  0.85935  0.81003  Biso   1.000  C
  H285     1.0000 0.06197  0.86053  0.72173  Biso   1.000  H
  C384     1.0000 0.99721  0.87409  0.75773  Biso   1.000  C
  H286     1.0000 0.01587  0.89723  0.70083  Biso   1.000  H
  H287     1.0000 0.97957  0.84853  0.70763  Biso   1.000  H
  H288     1.0000 0.97897  0.88203  0.80463  Biso   1.000  H
  Sn8      1.0000 0.16667  0.83333  0.33333  Biso   1.000  Sn
  N33      1.0000 0.89372  0.20781  0.74127  Biso   1.000  N
  C385     1.0000 0.93474  0.32063  0.62647  Biso   1.000  C
  C386     1.0000 0.90598  0.27373  0.63437  Biso   1.000  C
  N34      1.0000 0.83014  0.11721  0.77537  Biso   1.000  N
  C387     1.0000 0.98177  0.40896  0.60187  Biso   1.000  C
  C388     1.0000 0.91759  0.25049  0.71557  Biso   1.000  C
  C389     1.0000 0.89987  0.15678  0.88127  Biso   1.000  C
  C390     1.0000 0.95607  0.26716  0.78757  Biso   1.000  C
  H289     1.0000 0.97853  0.29567  0.78727  Biso   1.000  H
  C391     1.0000 0.95459  0.23484  0.85627  Biso   1.000  C
  H290     1.0000 0.97583  0.23677  0.91237  Biso   1.000  H
  C392     1.0000 0.85652  0.28193  0.48217  Biso   1.000  C
  H291     1.0000 0.87253  0.31157  0.46757  Biso   1.000  H
  C393     1.0000 0.95872  0.33910  0.51797  Biso   1.000  C
  H292     1.0000 0.95903  0.32167  0.45117  Biso   1.000  H
  C394     1.0000 0.91505  0.19721  0.82887  Biso   1.000  C
  C395     1.0000 0.86852  0.25779  0.56257  Biso   1.000  C
  C396     1.0000 0.86157  0.12016  0.85537  Biso   1.000  C
  C397     1.0000 0.95820  0.39031  0.70977  Biso   1.000  C
  H293     1.0000 0.95793  0.40777  0.77637  Biso   1.000  H
  C398     1.0000 0.81839  0.25491  0.43097  Biso   1.000  C
  H294     1.0000 0.80303  0.26227  0.37367  Biso   1.000  H
  C399     1.0000 0.93494  0.34674  0.72307  Biso   1.000  C
  H295     1.0000 0.91913  0.33467  0.79837  Biso   1.000  H
  C400     1.0000 0.92812  0.15108  0.97457  Biso   1.000  C
  C401     1.0000 0.98221  0.38280  0.50657  Biso   1.000  C
  H296     1.0000 0.99883  0.39497  0.43257  Biso   1.000  H
  C402     1.0000 0.98458  0.13688  0.01987  Biso   1.000  C
  H297     1.0000 0.00673  0.13267  0.98967  Biso   1.000  H
  C403     1.0000 0.00566  0.45634  0.58607  Biso   1.000  C
  H298     1.0000 0.03613  0.46677  0.59167  Biso   1.000  H
  H299     1.0000 0.99733  0.46927  0.65327  Biso   1.000  H
  H300     1.0000 0.99913  0.46377  0.50287  Biso   1.000  H
  C404     1.0000 0.91984  0.14861  0.10247  Biso   1.000  C
  H301     1.0000 0.89733  0.15237  0.13227  Biso   1.000  H
  C405     1.0000 0.97619  0.13457  0.14877  Biso   1.000  C
  C406     1.0000 0.96082  0.14533  0.93437  Biso   1.000  C
  H302     1.0000 0.96723  0.14717  0.84627  Biso   1.000  H
  C407     1.0000 0.94398  0.14065  0.18997  Biso   1.000  C
  H303     1.0000 0.93803  0.13947  0.27827  Biso   1.000  H
  C408     1.0000 0.00279  0.12591  0.24227  Biso   1.000  C
  H304     1.0000 0.98413  0.10277  0.29917  Biso   1.000  H
  H305     1.0000 0.02043  0.15147  0.29237  Biso   1.000  H
  H306     1.0000 0.02103  0.11797  0.19537  Biso   1.000  H
  N35      1.0000 0.77294  0.12553  0.59207  Biso   1.000  N
  C409     1.0000 0.73192  0.01271  0.70687  Biso   1.000  C
  C410     1.0000 0.76068  0.05961  0.69897  Biso   1.000  C
  N36      1.0000 0.83652  0.21613  0.55797  Biso   1.000  N
  C411     1.0000 0.68489  0.92438  0.73147  Biso   1.000  C
  C412     1.0000 0.74907  0.08285  0.61777  Biso   1.000  C
  C413     1.0000 0.76679  0.17656  0.45207  Biso   1.000  C
  C414     1.0000 0.71059  0.06618  0.54577  Biso   1.000  C
  H307     1.0000 0.68813  0.03767  0.54607  Biso   1.000  H
  C415     1.0000 0.71207  0.09850  0.47707  Biso   1.000  C
  H308     1.0000 0.69083  0.09657  0.42097  Biso   1.000  H
  C416     1.0000 0.81014  0.05141  0.85117  Biso   1.000  C
  H309     1.0000 0.79413  0.02177  0.86577  Biso   1.000  H
  C417     1.0000 0.70794  0.99424  0.81537  Biso   1.000  C
  H310     1.0000 0.70763  0.01167  0.88217  Biso   1.000  H
  C418     1.0000 0.75161  0.13613  0.50447  Biso   1.000  C
  C419     1.0000 0.79814  0.07555  0.77077  Biso   1.000  C
  C420     1.0000 0.80509  0.21318  0.47797  Biso   1.000  C
  C421     1.0000 0.70846  0.94303  0.62357  Biso   1.000  C
  H311     1.0000 0.70873  0.92557  0.55697  Biso   1.000  H
  C422     1.0000 0.84827  0.07843  0.90237  Biso   1.000  C
  H312     1.0000 0.86363  0.07107  0.95967  Biso   1.000  H
  C423     1.0000 0.73172  0.98660  0.61027  Biso   1.000  C
  H313     1.0000 0.74753  0.99867  0.53497  Biso   1.000  H
  C424     1.0000 0.73854  0.18226  0.35877  Biso   1.000  C
  C425     1.0000 0.68445  0.95054  0.82677  Biso   1.000  C
  H314     1.0000 0.66783  0.93837  0.90077  Biso   1.000  H
  C426     1.0000 0.68208  0.19646  0.31347  Biso   1.000  C
  H315     1.0000 0.65993  0.20067  0.34367  Biso   1.000  H
  C427     1.0000 0.66100  0.87700  0.74727  Biso   1.000  C
  H316     1.0000 0.63053  0.86657  0.74167  Biso   1.000  H
  H317     1.0000 0.66933  0.86407  0.68007  Biso   1.000  H
  H318     1.0000 0.66753  0.86957  0.83047  Biso   1.000  H
  C428     1.0000 0.74682  0.18473  0.23087  Biso   1.000  C
  H319     1.0000 0.76933  0.18097  0.20107  Biso   1.000  H
  C429     1.0000 0.69047  0.19877  0.18457  Biso   1.000  C
  C430     1.0000 0.70584  0.18801  0.39897  Biso   1.000  C
  H320     1.0000 0.69943  0.18617  0.48707  Biso   1.000  H
  C431     1.0000 0.72268  0.19269  0.14337  Biso   1.000  C
  H321     1.0000 0.72863  0.19387  0.05507  Biso   1.000  H
  C432     1.0000 0.66387  0.20743  0.09107  Biso   1.000  C
  H322     1.0000 0.68253  0.23057  0.03417  Biso   1.000  H
  H323     1.0000 0.64623  0.18187  0.04097  Biso   1.000  H
  H324     1.0000 0.64563  0.21537  0.13797  Biso   1.000  H
  Sn9      1.0000 0.83333  0.16667  0.66667  Biso   1.000  Sn
