data_image0
_cell_length_a       37.419
_cell_length_b       37.419
_cell_length_c       10.7471
_cell_angle_alpha    90
_cell_angle_beta     90
_cell_angle_gamma    120

_symmetry_space_group_name_H-M    "P 1"
_symmetry_int_tables_number       1

loop_
  _symmetry_equiv_pos_as_xyz
  'x, y, z'

loop_
  _atom_site_label
  _atom_site_occupancy
  _atom_site_fract_x
  _atom_site_fract_y
  _atom_site_fract_z
  _atom_site_thermal_displace_type
  _atom_site_B_iso_or_equiv
  _atom_site_type_symbol
  N1       1.0000 0.44342  0.98463  0.41400  Biso   1.000  N
  N2       1.0000 0.49606  0.04506  0.60490  Biso   1.000  N
  C1       1.0000 0.41283  0.89847  0.17670  Biso   1.000  C
  C2       1.0000 0.43047  0.03618  0.51740  Biso   1.000  C
  C3       1.0000 0.42480  0.95521  0.32200  Biso   1.000  C
  C4       1.0000 0.52524  0.07125  0.68850  Biso   1.000  C
  C5       1.0000 0.42061  0.00348  0.43410  Biso   1.000  C
  C6       1.0000 0.40196  0.05322  0.52630  Biso   1.000  C
  C7       1.0000 0.51244  0.09962  0.73170  Biso   1.000  C
  H1       1.0000 0.52690  0.12130  0.78990  Biso   1.000  H
  C8       1.0000 0.43881  0.92919  0.27440  Biso   1.000  C
  C9       1.0000 0.47655  0.09021  0.67560  Biso   1.000  C
  H2       1.0000 0.46120  0.10390  0.68730  Biso   1.000  H
  C10      1.0000 0.37561  0.04413  0.62640  Biso   1.000  C
  H3       1.0000 0.37370  0.02480  0.68690  Biso   1.000  H
  C11      1.0000 0.38798  0.95576  0.28460  Biso   1.000  C
  H4       1.0000 0.36880  0.93850  0.22320  Biso   1.000  H
  C12      1.0000 0.37924  0.09929  0.45210  Biso   1.000  C
  H5       1.0000 0.38050  0.11810  0.39060  Biso   1.000  H
  C13      1.0000 0.40281  0.08074  0.43780  Biso   1.000  C
  H6       1.0000 0.41990  0.08680  0.36650  Biso   1.000  H
  C14      1.0000 0.38551  0.98497  0.35190  Biso   1.000  C
  H7       1.0000 0.36440  0.99200  0.34600  Biso   1.000  H
  C15      1.0000 0.32935  0.11256  0.57310  Biso   1.000  C
  H8       1.0000 0.30030  0.09350  0.55380  Biso   1.000  H
  H9       1.0000 0.34000  0.13660  0.51800  Biso   1.000  H
  H10      1.0000 0.33190  0.12160  0.65990  Biso   1.000  H
  C16      1.0000 0.35369  0.09110  0.55460  Biso   1.000  C
  C17      1.0000 0.35196  0.06278  0.63990  Biso   1.000  C
  H11      1.0000 0.33410  0.05590  0.70970  Biso   1.000  H
  C18      1.0000 0.46564  0.05557  0.59470  Biso   1.000  C
  C19      1.0000 0.36696  0.84039  0.99260  Biso   1.000  C
  C20      1.0000 0.42462  0.90503  0.05280  Biso   1.000  C
  H12      1.0000 0.44890  0.92970  0.02950  Biso   1.000  H
  C21      1.0000 0.35478  0.83313  0.11640  Biso   1.000  C
  H13      1.0000 0.33070  0.80820  0.13920  Biso   1.000  H
  C22      1.0000 0.37754  0.86215  0.20760  Biso   1.000  C
  H14      1.0000 0.36870  0.85690  0.29180  Biso   1.000  H
  C23      1.0000 0.40160  0.87637  0.96240  Biso   1.000  C
  H15      1.0000 0.41020  0.88190  0.87800  Biso   1.000  H
  C24      1.0000 0.34120  0.80910  0.89270  Biso   1.000  C
  H16      1.0000 0.32910  0.82110  0.83750  Biso   1.000  H
  H17      1.0000 0.31900  0.78430  0.93220  Biso   1.000  H
  H18      1.0000 0.35880  0.80180  0.84410  Biso   1.000  H
  N3       1.0000 0.55658  0.01537  0.58600  Biso   1.000  N
  N4       1.0000 0.50394  0.95494  0.39510  Biso   1.000  N
  C25      1.0000 0.58717  0.10153  0.82330  Biso   1.000  C
  C26      1.0000 0.56953  0.96382  0.48260  Biso   1.000  C
  C27      1.0000 0.57520  0.04479  0.67800  Biso   1.000  C
  C28      1.0000 0.47476  0.92875  0.31150  Biso   1.000  C
  C29      1.0000 0.57939  0.99652  0.56590  Biso   1.000  C
  C30      1.0000 0.59804  0.94678  0.47370  Biso   1.000  C
  C31      1.0000 0.48756  0.90038  0.26830  Biso   1.000  C
  H19      1.0000 0.47310  0.87870  0.21010  Biso   1.000  H
  C32      1.0000 0.56119  0.07081  0.72560  Biso   1.000  C
  C33      1.0000 0.52345  0.90979  0.32440  Biso   1.000  C
  H20      1.0000 0.53880  0.89610  0.31270  Biso   1.000  H
  C34      1.0000 0.62439  0.95587  0.37360  Biso   1.000  C
  H21      1.0000 0.62630  0.97520  0.31310  Biso   1.000  H
  C35      1.0000 0.61202  0.04424  0.71540  Biso   1.000  C
  H22      1.0000 0.63120  0.06150  0.77680  Biso   1.000  H
  C36      1.0000 0.62076  0.90071  0.54790  Biso   1.000  C
  H23      1.0000 0.61950  0.88190  0.60940  Biso   1.000  H
  C37      1.0000 0.59719  0.91926  0.56220  Biso   1.000  C
  H24      1.0000 0.58010  0.91320  0.63350  Biso   1.000  H
  C38      1.0000 0.61449  0.01503  0.64810  Biso   1.000  C
  H25      1.0000 0.63560  0.00800  0.65400  Biso   1.000  H
  C39      1.0000 0.67065  0.88744  0.42690  Biso   1.000  C
  H26      1.0000 0.69970  0.90650  0.44620  Biso   1.000  H
  H27      1.0000 0.66000  0.86340  0.48200  Biso   1.000  H
  H28      1.0000 0.66810  0.87840  0.34010  Biso   1.000  H
  C40      1.0000 0.64631  0.90890  0.44540  Biso   1.000  C
  C41      1.0000 0.64804  0.93722  0.36010  Biso   1.000  C
  H29      1.0000 0.66590  0.94410  0.29030  Biso   1.000  H
  C42      1.0000 0.53436  0.94443  0.40530  Biso   1.000  C
  C43      1.0000 0.63304  0.15961  0.00740  Biso   1.000  C
  C44      1.0000 0.57538  0.09497  0.94720  Biso   1.000  C
  H30      1.0000 0.55110  0.07030  0.97050  Biso   1.000  H
  C45      1.0000 0.64522  0.16687  0.88360  Biso   1.000  C
  H31      1.0000 0.66930  0.19180  0.86080  Biso   1.000  H
  C46      1.0000 0.62246  0.13785  0.79240  Biso   1.000  C
  H32      1.0000 0.63130  0.14310  0.70820  Biso   1.000  H
  C47      1.0000 0.59840  0.12363  0.03760  Biso   1.000  C
  H33      1.0000 0.58980  0.11810  0.12200  Biso   1.000  H
  C48      1.0000 0.65880  0.19090  0.10730  Biso   1.000  C
  H34      1.0000 0.67090  0.17890  0.16250  Biso   1.000  H
  H35      1.0000 0.68100  0.21570  0.06780  Biso   1.000  H
  H36      1.0000 0.64120  0.19820  0.15590  Biso   1.000  H
  Sn1      1.0000 0.50000  0.00000  0.50000  Biso   1.000  Sn
  N5       1.0000 0.11009  0.31796  0.74733  Biso   1.000  N
  N6       1.0000 0.16273  0.37839  0.93823  Biso   1.000  N
  C49      1.0000 0.07950  0.23180  0.51003  Biso   1.000  C
  C50      1.0000 0.09714  0.36951  0.85073  Biso   1.000  C
  C51      1.0000 0.09147  0.28854  0.65533  Biso   1.000  C
  C52      1.0000 0.19191  0.40458  0.02183  Biso   1.000  C
  C53      1.0000 0.08728  0.33681  0.76743  Biso   1.000  C
  C54      1.0000 0.06863  0.38655  0.85963  Biso   1.000  C
  C55      1.0000 0.17911  0.43295  0.06503  Biso   1.000  C
  H37      1.0000 0.19357  0.45463  0.12323  Biso   1.000  H
  C56      1.0000 0.10548  0.26252  0.60773  Biso   1.000  C
  C57      1.0000 0.14322  0.42354  0.00893  Biso   1.000  C
  H38      1.0000 0.12787  0.43723  0.02063  Biso   1.000  H
  C58      1.0000 0.04228  0.37746  0.95973  Biso   1.000  C
  H39      1.0000 0.04037  0.35813  0.02023  Biso   1.000  H
  C59      1.0000 0.05465  0.28909  0.61793  Biso   1.000  C
  H40      1.0000 0.03547  0.27183  0.55653  Biso   1.000  H
  C60      1.0000 0.04591  0.43262  0.78543  Biso   1.000  C
  H41      1.0000 0.04717  0.45143  0.72393  Biso   1.000  H
  C61      1.0000 0.06948  0.41407  0.77113  Biso   1.000  C
  H42      1.0000 0.08657  0.42013  0.69983  Biso   1.000  H
  C62      1.0000 0.05218  0.31830  0.68523  Biso   1.000  C
  H43      1.0000 0.03107  0.32533  0.67933  Biso   1.000  H
  C63      1.0000 0.99602  0.44589  0.90643  Biso   1.000  C
  H44      1.0000 0.96697  0.42683  0.88713  Biso   1.000  H
  H45      1.0000 0.00667  0.46993  0.85133  Biso   1.000  H
  H46      1.0000 0.99857  0.45493  0.99323  Biso   1.000  H
  C64      1.0000 0.02036  0.42443  0.88793  Biso   1.000  C
  C65      1.0000 0.01863  0.39611  0.97323  Biso   1.000  C
  H47      1.0000 0.00077  0.38923  0.04303  Biso   1.000  H
  C66      1.0000 0.13231  0.38890  0.92803  Biso   1.000  C
  C67      1.0000 0.03363  0.17372  0.32593  Biso   1.000  C
  C68      1.0000 0.09129  0.23836  0.38613  Biso   1.000  C
  H48      1.0000 0.11557  0.26303  0.36283  Biso   1.000  H
  C69      1.0000 0.02145  0.16646  0.44973  Biso   1.000  C
  H49      1.0000 0.99737  0.14153  0.47253  Biso   1.000  H
  C70      1.0000 0.04421  0.19548  0.54093  Biso   1.000  C
  H50      1.0000 0.03537  0.19023  0.62513  Biso   1.000  H
  C71      1.0000 0.06827  0.20970  0.29573  Biso   1.000  C
  H51      1.0000 0.07687  0.21523  0.21133  Biso   1.000  H
  C72      1.0000 0.00787  0.14243  0.22603  Biso   1.000  C
  H52      1.0000 0.99577  0.15443  0.17083  Biso   1.000  H
  H53      1.0000 0.98567  0.11763  0.26553  Biso   1.000  H
  H54      1.0000 0.02547  0.13513  0.17743  Biso   1.000  H
  N7       1.0000 0.22325  0.34870  0.91933  Biso   1.000  N
  N8       1.0000 0.17061  0.28827  0.72843  Biso   1.000  N
  C73      1.0000 0.25384  0.43486  0.15663  Biso   1.000  C
  C74      1.0000 0.23620  0.29715  0.81593  Biso   1.000  C
  C75      1.0000 0.24187  0.37812  0.01133  Biso   1.000  C
  C76      1.0000 0.14143  0.26208  0.64483  Biso   1.000  C
  C77      1.0000 0.24606  0.32985  0.89923  Biso   1.000  C
  C78      1.0000 0.26471  0.28011  0.80703  Biso   1.000  C
  C79      1.0000 0.15423  0.23371  0.60163  Biso   1.000  C
  H55      1.0000 0.13977  0.21203  0.54343  Biso   1.000  H
  C80      1.0000 0.22786  0.40414  0.05893  Biso   1.000  C
  C81      1.0000 0.19012  0.24312  0.65773  Biso   1.000  C
  H56      1.0000 0.20547  0.22943  0.64603  Biso   1.000  H
  C82      1.0000 0.29106  0.28920  0.70693  Biso   1.000  C
  H57      1.0000 0.29297  0.30853  0.64643  Biso   1.000  H
  C83      1.0000 0.27869  0.37757  0.04873  Biso   1.000  C
  H58      1.0000 0.29787  0.39483  0.11013  Biso   1.000  H
  C84      1.0000 0.28743  0.23404  0.88123  Biso   1.000  C
  H59      1.0000 0.28617  0.21523  0.94273  Biso   1.000  H
  C85      1.0000 0.26386  0.25259  0.89553  Biso   1.000  C
  H60      1.0000 0.24677  0.24653  0.96683  Biso   1.000  H
  C86      1.0000 0.28116  0.34836  0.98143  Biso   1.000  C
  H61      1.0000 0.30227  0.34133  0.98733  Biso   1.000  H
  C87      1.0000 0.33732  0.22077  0.76023  Biso   1.000  C
  H62      1.0000 0.36637  0.23983  0.77953  Biso   1.000  H
  H63      1.0000 0.32667  0.19673  0.81533  Biso   1.000  H
  H64      1.0000 0.33477  0.21173  0.67343  Biso   1.000  H
  C88      1.0000 0.31298  0.24223  0.77873  Biso   1.000  C
  C89      1.0000 0.31471  0.27055  0.69343  Biso   1.000  C
  H65      1.0000 0.33257  0.27743  0.62363  Biso   1.000  H
  C90      1.0000 0.20103  0.27776  0.73863  Biso   1.000  C
  C91      1.0000 0.29971  0.49294  0.34073  Biso   1.000  C
  C92      1.0000 0.24205  0.42830  0.28053  Biso   1.000  C
  H66      1.0000 0.21777  0.40363  0.30383  Biso   1.000  H
  C93      1.0000 0.31189  0.50020  0.21693  Biso   1.000  C
  H67      1.0000 0.33597  0.52513  0.19413  Biso   1.000  H
  C94      1.0000 0.28913  0.47118  0.12573  Biso   1.000  C
  H68      1.0000 0.29797  0.47643  0.04153  Biso   1.000  H
  C95      1.0000 0.26507  0.45696  0.37093  Biso   1.000  C
  H69      1.0000 0.25647  0.45143  0.45533  Biso   1.000  H
  C96      1.0000 0.32547  0.52423  0.44063  Biso   1.000  C
  H70      1.0000 0.33757  0.51223  0.49583  Biso   1.000  H
  H71      1.0000 0.34767  0.54903  0.40113  Biso   1.000  H
  H72      1.0000 0.30787  0.53153  0.48923  Biso   1.000  H
  Sn2      1.0000 0.16667  0.33333  0.83333  Biso   1.000  Sn
  N9       1.0000 0.77675  0.65130  0.08067  Biso   1.000  N
  N10      1.0000 0.82939  0.71173  0.27157  Biso   1.000  N
  C97      1.0000 0.74616  0.56514  0.84337  Biso   1.000  C
  C98      1.0000 0.76380  0.70285  0.18407  Biso   1.000  C
  C99      1.0000 0.75813  0.62188  0.98867  Biso   1.000  C
  C100     1.0000 0.85857  0.73792  0.35517  Biso   1.000  C
  C101     1.0000 0.75394  0.67015  0.10077  Biso   1.000  C
  C102     1.0000 0.73529  0.71989  0.19297  Biso   1.000  C
  C103     1.0000 0.84577  0.76629  0.39837  Biso   1.000  C
  H73      1.0000 0.86023  0.78797  0.45657  Biso   1.000  H
  C104     1.0000 0.77214  0.59586  0.94107  Biso   1.000  C
  C105     1.0000 0.80988  0.75688  0.34227  Biso   1.000  C
  H74      1.0000 0.79453  0.77057  0.35397  Biso   1.000  H
  C106     1.0000 0.70894  0.71080  0.29307  Biso   1.000  C
  H75      1.0000 0.70703  0.69147  0.35357  Biso   1.000  H
  C107     1.0000 0.72131  0.62243  0.95127  Biso   1.000  C
  H76      1.0000 0.70213  0.60517  0.88987  Biso   1.000  H
  C108     1.0000 0.71257  0.76596  0.11877  Biso   1.000  C
  H77      1.0000 0.71383  0.78477  0.05727  Biso   1.000  H
  C109     1.0000 0.73614  0.74741  0.10447  Biso   1.000  C
  H78      1.0000 0.75323  0.75347  0.03317  Biso   1.000  H
  C110     1.0000 0.71884  0.65164  0.01857  Biso   1.000  C
  H79      1.0000 0.69773  0.65867  0.01267  Biso   1.000  H
  C111     1.0000 0.66268  0.77923  0.23977  Biso   1.000  C
  H80      1.0000 0.63363  0.76017  0.22047  Biso   1.000  H
  H81      1.0000 0.67333  0.80327  0.18467  Biso   1.000  H
  H82      1.0000 0.66523  0.78827  0.32657  Biso   1.000  H
  C112     1.0000 0.68702  0.75777  0.22127  Biso   1.000  C
  C113     1.0000 0.68529  0.72945  0.30657  Biso   1.000  C
  H83      1.0000 0.66743  0.72257  0.37637  Biso   1.000  H
  C114     1.0000 0.79897  0.72224  0.26137  Biso   1.000  C
  C115     1.0000 0.70029  0.50706  0.65927  Biso   1.000  C
  C116     1.0000 0.75795  0.57170  0.71947  Biso   1.000  C
  H84      1.0000 0.78223  0.59637  0.69617  Biso   1.000  H
  C117     1.0000 0.68811  0.49980  0.78307  Biso   1.000  C
  H85      1.0000 0.66403  0.47487  0.80587  Biso   1.000  H
  C118     1.0000 0.71087  0.52882  0.87427  Biso   1.000  C
  H86      1.0000 0.70203  0.52357  0.95847  Biso   1.000  H
  C119     1.0000 0.73493  0.54304  0.62907  Biso   1.000  C
  H87      1.0000 0.74353  0.54857  0.54467  Biso   1.000  H
  C120     1.0000 0.67453  0.47577  0.55937  Biso   1.000  C
  H88      1.0000 0.66243  0.48777  0.50417  Biso   1.000  H
  H89      1.0000 0.65233  0.45097  0.59887  Biso   1.000  H
  H90      1.0000 0.69213  0.46847  0.51077  Biso   1.000  H
  N11      1.0000 0.88991  0.68204  0.25267  Biso   1.000  N
  N12      1.0000 0.83727  0.62161  0.06177  Biso   1.000  N
  C121     1.0000 0.92050  0.76820  0.48997  Biso   1.000  C
  C122     1.0000 0.90286  0.63049  0.14927  Biso   1.000  C
  C123     1.0000 0.90853  0.71146  0.34467  Biso   1.000  C
  C124     1.0000 0.80809  0.59542  0.97817  Biso   1.000  C
  C125     1.0000 0.91272  0.66319  0.23257  Biso   1.000  C
  C126     1.0000 0.93137  0.61345  0.14037  Biso   1.000  C
  C127     1.0000 0.82089  0.56705  0.93497  Biso   1.000  C
  H91      1.0000 0.80643  0.54537  0.87677  Biso   1.000  H
  C128     1.0000 0.89452  0.73748  0.39227  Biso   1.000  C
  C129     1.0000 0.85678  0.57646  0.99107  Biso   1.000  C
  H92      1.0000 0.87213  0.56277  0.97937  Biso   1.000  H
  C130     1.0000 0.95772  0.62254  0.04027  Biso   1.000  C
  H93      1.0000 0.95963  0.64187  0.97977  Biso   1.000  H
  C131     1.0000 0.94535  0.71091  0.38207  Biso   1.000  C
  H94      1.0000 0.96453  0.72817  0.44347  Biso   1.000  H
  C132     1.0000 0.95409  0.56738  0.21457  Biso   1.000  C
  H95      1.0000 0.95283  0.54857  0.27607  Biso   1.000  H
  C133     1.0000 0.93052  0.58593  0.22887  Biso   1.000  C
  H96      1.0000 0.91343  0.57987  0.30017  Biso   1.000  H
  C134     1.0000 0.94782  0.68170  0.31477  Biso   1.000  C
  H97      1.0000 0.96893  0.67467  0.32067  Biso   1.000  H
  C135     1.0000 0.00398  0.55411  0.09357  Biso   1.000  C
  H98      1.0000 0.03303  0.57317  0.11287  Biso   1.000  H
  H99      1.0000 0.99333  0.53007  0.14867  Biso   1.000  H
  H100     1.0000 0.00143  0.54507  0.00677  Biso   1.000  H
  C136     1.0000 0.97964  0.57557  0.11207  Biso   1.000  C
  C137     1.0000 0.98137  0.60389  0.02677  Biso   1.000  C
  H101     1.0000 0.99923  0.61077  0.95697  Biso   1.000  H
  C138     1.0000 0.86769  0.61110  0.07197  Biso   1.000  C
  C139     1.0000 0.96637  0.82628  0.67407  Biso   1.000  C
  C140     1.0000 0.90871  0.76164  0.61387  Biso   1.000  C
  H102     1.0000 0.88443  0.73697  0.63717  Biso   1.000  H
  C141     1.0000 0.97855  0.83354  0.55027  Biso   1.000  C
  H103     1.0000 0.00263  0.85847  0.52747  Biso   1.000  H
  C142     1.0000 0.95579  0.80452  0.45907  Biso   1.000  C
  H104     1.0000 0.96463  0.80977  0.37487  Biso   1.000  H
  C143     1.0000 0.93173  0.79030  0.70427  Biso   1.000  C
  H105     1.0000 0.92313  0.78477  0.78867  Biso   1.000  H
  C144     1.0000 0.99213  0.85757  0.77397  Biso   1.000  C
  H106     1.0000 0.00423  0.84557  0.82917  Biso   1.000  H
  H107     1.0000 0.01433  0.88237  0.73447  Biso   1.000  H
  H108     1.0000 0.97453  0.86487  0.82257  Biso   1.000  H
  Sn3      1.0000 0.83333  0.66667  0.16667  Biso   1.000  Sn
  N13      1.0000 0.01537  0.45879  0.41400  Biso   1.000  N
  N14      1.0000 0.95494  0.45100  0.60490  Biso   1.000  N
  C145     1.0000 0.10153  0.51436  0.17670  Biso   1.000  C
  C146     1.0000 0.96382  0.39429  0.51740  Biso   1.000  C
  C147     1.0000 0.04479  0.46959  0.32200  Biso   1.000  C
  C148     1.0000 0.92875  0.45399  0.68850  Biso   1.000  C
  C149     1.0000 0.99652  0.41713  0.43410  Biso   1.000  C
  C150     1.0000 0.94678  0.34874  0.52630  Biso   1.000  C
  C151     1.0000 0.90038  0.41282  0.73170  Biso   1.000  C
  H109     1.0000 0.87870  0.40560  0.78990  Biso   1.000  H
  C152     1.0000 0.07081  0.50962  0.27440  Biso   1.000  C
  C153     1.0000 0.90979  0.38634  0.67560  Biso   1.000  C
  H110     1.0000 0.89610  0.35730  0.68730  Biso   1.000  H
  C154     1.0000 0.95587  0.33148  0.62640  Biso   1.000  C
  H111     1.0000 0.97520  0.34890  0.68690  Biso   1.000  H
  C155     1.0000 0.04424  0.43222  0.28460  Biso   1.000  C
  H112     1.0000 0.06150  0.43030  0.22320  Biso   1.000  H
  C156     1.0000 0.90071  0.27995  0.45210  Biso   1.000  C
  H113     1.0000 0.88190  0.26240  0.39060  Biso   1.000  H
  C157     1.0000 0.91926  0.32207  0.43780  Biso   1.000  C
  H114     1.0000 0.91320  0.33310  0.36650  Biso   1.000  H
  C158     1.0000 0.01503  0.40054  0.35190  Biso   1.000  C
  H115     1.0000 0.00800  0.37240  0.34600  Biso   1.000  H
  C159     1.0000 0.88744  0.21679  0.57310  Biso   1.000  C
  H116     1.0000 0.90650  0.20680  0.55380  Biso   1.000  H
  H117     1.0000 0.86340  0.20340  0.51800  Biso   1.000  H
  H118     1.0000 0.87840  0.21030  0.65990  Biso   1.000  H
  C160     1.0000 0.90890  0.26259  0.55460  Biso   1.000  C
  C161     1.0000 0.93722  0.28918  0.63990  Biso   1.000  C
  H119     1.0000 0.94410  0.27820  0.70970  Biso   1.000  H
  C162     1.0000 0.94443  0.41007  0.59470  Biso   1.000  C
  C163     1.0000 0.15961  0.52657  0.99260  Biso   1.000  C
  C164     1.0000 0.09497  0.51959  0.05280  Biso   1.000  C
  H120     1.0000 0.07030  0.51920  0.02950  Biso   1.000  H
  C165     1.0000 0.16687  0.52165  0.11640  Biso   1.000  C
  H121     1.0000 0.19180  0.52250  0.13920  Biso   1.000  H
  C166     1.0000 0.13785  0.51539  0.20760  Biso   1.000  C
  H122     1.0000 0.14310  0.51180  0.29180  Biso   1.000  H
  C167     1.0000 0.12363  0.52523  0.96240  Biso   1.000  C
  H123     1.0000 0.11810  0.52830  0.87800  Biso   1.000  H
  C168     1.0000 0.19090  0.53210  0.89270  Biso   1.000  C
  H124     1.0000 0.17890  0.50800  0.83750  Biso   1.000  H
  H125     1.0000 0.21570  0.53470  0.93220  Biso   1.000  H
  H126     1.0000 0.19820  0.55700  0.84410  Biso   1.000  H
  N15      1.0000 0.98463  0.54121  0.58600  Biso   1.000  N
  N16      1.0000 0.04506  0.54900  0.39510  Biso   1.000  N
  C169     1.0000 0.89847  0.48564  0.82330  Biso   1.000  C
  C170     1.0000 0.03618  0.60571  0.48260  Biso   1.000  C
  C171     1.0000 0.95521  0.53041  0.67800  Biso   1.000  C
  C172     1.0000 0.07125  0.54601  0.31150  Biso   1.000  C
  C173     1.0000 0.00348  0.58287  0.56590  Biso   1.000  C
  C174     1.0000 0.05322  0.65126  0.47370  Biso   1.000  C
  C175     1.0000 0.09962  0.58718  0.26830  Biso   1.000  C
  H127     1.0000 0.12130  0.59440  0.21010  Biso   1.000  H
  C176     1.0000 0.92919  0.49038  0.72560  Biso   1.000  C
  C177     1.0000 0.09021  0.61366  0.32440  Biso   1.000  C
  H128     1.0000 0.10390  0.64270  0.31270  Biso   1.000  H
  C178     1.0000 0.04413  0.66852  0.37360  Biso   1.000  C
  H129     1.0000 0.02480  0.65110  0.31310  Biso   1.000  H
  C179     1.0000 0.95576  0.56778  0.71540  Biso   1.000  C
  H130     1.0000 0.93850  0.56970  0.77680  Biso   1.000  H
  C180     1.0000 0.09929  0.72005  0.54790  Biso   1.000  C
  H131     1.0000 0.11810  0.73760  0.60940  Biso   1.000  H
  C181     1.0000 0.08074  0.67793  0.56220  Biso   1.000  C
  H132     1.0000 0.08680  0.66690  0.63350  Biso   1.000  H
  C182     1.0000 0.98497  0.59946  0.64810  Biso   1.000  C
  H133     1.0000 0.99200  0.62760  0.65400  Biso   1.000  H
  C183     1.0000 0.11256  0.78321  0.42690  Biso   1.000  C
  H134     1.0000 0.09350  0.79320  0.44620  Biso   1.000  H
  H135     1.0000 0.13660  0.79660  0.48200  Biso   1.000  H
  H136     1.0000 0.12160  0.78970  0.34010  Biso   1.000  H
  C184     1.0000 0.09110  0.73741  0.44540  Biso   1.000  C
  C185     1.0000 0.06278  0.71082  0.36010  Biso   1.000  C
  H137     1.0000 0.05590  0.72180  0.29030  Biso   1.000  H
  C186     1.0000 0.05557  0.58993  0.40530  Biso   1.000  C
  C187     1.0000 0.84039  0.47343  0.00740  Biso   1.000  C
  C188     1.0000 0.90503  0.48041  0.94720  Biso   1.000  C
  H138     1.0000 0.92970  0.48080  0.97050  Biso   1.000  H
  C189     1.0000 0.83313  0.47835  0.88360  Biso   1.000  C
  H139     1.0000 0.80820  0.47750  0.86080  Biso   1.000  H
  C190     1.0000 0.86215  0.48461  0.79240  Biso   1.000  C
  H140     1.0000 0.85690  0.48820  0.70820  Biso   1.000  H
  C191     1.0000 0.87637  0.47477  0.03760  Biso   1.000  C
  H141     1.0000 0.88190  0.47170  0.12200  Biso   1.000  H
  C192     1.0000 0.80910  0.46790  0.10730  Biso   1.000  C
  H142     1.0000 0.82110  0.49200  0.16250  Biso   1.000  H
  H143     1.0000 0.78430  0.46530  0.06780  Biso   1.000  H
  H144     1.0000 0.80180  0.44300  0.15590  Biso   1.000  H
  Sn4      1.0000 0.00000  0.50000  0.50000  Biso   1.000  Sn
  N17      1.0000 0.68204  0.79212  0.74733  Biso   1.000  N
  N18      1.0000 0.62161  0.78433  0.93823  Biso   1.000  N
  C193     1.0000 0.76820  0.84769  0.51003  Biso   1.000  C
  C194     1.0000 0.63049  0.72762  0.85073  Biso   1.000  C
  C195     1.0000 0.71146  0.80292  0.65533  Biso   1.000  C
  C196     1.0000 0.59542  0.78732  0.02183  Biso   1.000  C
  C197     1.0000 0.66319  0.75046  0.76743  Biso   1.000  C
  C198     1.0000 0.61345  0.68207  0.85963  Biso   1.000  C
  C199     1.0000 0.56705  0.74615  0.06503  Biso   1.000  C
  H145     1.0000 0.54537  0.73893  0.12323  Biso   1.000  H
  C200     1.0000 0.73748  0.84295  0.60773  Biso   1.000  C
  C201     1.0000 0.57646  0.71967  0.00893  Biso   1.000  C
  H146     1.0000 0.56277  0.69063  0.02063  Biso   1.000  H
  C202     1.0000 0.62254  0.66481  0.95973  Biso   1.000  C
  H147     1.0000 0.64187  0.68223  0.02023  Biso   1.000  H
  C203     1.0000 0.71091  0.76555  0.61793  Biso   1.000  C
  H148     1.0000 0.72817  0.76363  0.55653  Biso   1.000  H
  C204     1.0000 0.56738  0.61328  0.78543  Biso   1.000  C
  H149     1.0000 0.54857  0.59573  0.72393  Biso   1.000  H
  C205     1.0000 0.58593  0.65540  0.77113  Biso   1.000  C
  H150     1.0000 0.57987  0.66643  0.69983  Biso   1.000  H
  C206     1.0000 0.68170  0.73387  0.68523  Biso   1.000  C
  H151     1.0000 0.67467  0.70573  0.67933  Biso   1.000  H
  C207     1.0000 0.55411  0.55012  0.90643  Biso   1.000  C
  H152     1.0000 0.57317  0.54013  0.88713  Biso   1.000  H
  H153     1.0000 0.53007  0.53673  0.85133  Biso   1.000  H
  H154     1.0000 0.54507  0.54363  0.99323  Biso   1.000  H
  C208     1.0000 0.57557  0.59592  0.88793  Biso   1.000  C
  C209     1.0000 0.60389  0.62251  0.97323  Biso   1.000  C
  H155     1.0000 0.61077  0.61153  0.04303  Biso   1.000  H
  C210     1.0000 0.61110  0.74340  0.92803  Biso   1.000  C
  C211     1.0000 0.82628  0.85990  0.32593  Biso   1.000  C
  C212     1.0000 0.76164  0.85292  0.38613  Biso   1.000  C
  H156     1.0000 0.73697  0.85253  0.36283  Biso   1.000  H
  C213     1.0000 0.83354  0.85498  0.44973  Biso   1.000  C
  H157     1.0000 0.85847  0.85583  0.47253  Biso   1.000  H
  C214     1.0000 0.80452  0.84872  0.54093  Biso   1.000  C
  H158     1.0000 0.80977  0.84513  0.62513  Biso   1.000  H
  C215     1.0000 0.79030  0.85856  0.29573  Biso   1.000  C
  H159     1.0000 0.78477  0.86163  0.21133  Biso   1.000  H
  C216     1.0000 0.85757  0.86543  0.22603  Biso   1.000  C
  H160     1.0000 0.84557  0.84133  0.17083  Biso   1.000  H
  H161     1.0000 0.88237  0.86803  0.26553  Biso   1.000  H
  H162     1.0000 0.86487  0.89033  0.17743  Biso   1.000  H
  N19      1.0000 0.65130  0.87454  0.91933  Biso   1.000  N
  N20      1.0000 0.71173  0.88233  0.72843  Biso   1.000  N
  C217     1.0000 0.56514  0.81897  0.15663  Biso   1.000  C
  C218     1.0000 0.70285  0.93904  0.81593  Biso   1.000  C
  C219     1.0000 0.62188  0.86374  0.01133  Biso   1.000  C
  C220     1.0000 0.73792  0.87934  0.64483  Biso   1.000  C
  C221     1.0000 0.67015  0.91620  0.89923  Biso   1.000  C
  C222     1.0000 0.71989  0.98459  0.80703  Biso   1.000  C
  C223     1.0000 0.76629  0.92051  0.60163  Biso   1.000  C
  H163     1.0000 0.78797  0.92773  0.54343  Biso   1.000  H
  C224     1.0000 0.59586  0.82371  0.05893  Biso   1.000  C
  C225     1.0000 0.75688  0.94699  0.65773  Biso   1.000  C
  H164     1.0000 0.77057  0.97603  0.64603  Biso   1.000  H
  C226     1.0000 0.71080  0.00185  0.70693  Biso   1.000  C
  H165     1.0000 0.69147  0.98443  0.64643  Biso   1.000  H
  C227     1.0000 0.62243  0.90111  0.04873  Biso   1.000  C
  H166     1.0000 0.60517  0.90303  0.11013  Biso   1.000  H
  C228     1.0000 0.76596  0.05338  0.88123  Biso   1.000  C
  H167     1.0000 0.78477  0.07093  0.94273  Biso   1.000  H
  C229     1.0000 0.74741  0.01126  0.89553  Biso   1.000  C
  H168     1.0000 0.75347  0.00023  0.96683  Biso   1.000  H
  C230     1.0000 0.65164  0.93279  0.98143  Biso   1.000  C
  H169     1.0000 0.65867  0.96093  0.98733  Biso   1.000  H
  C231     1.0000 0.77923  0.11654  0.76023  Biso   1.000  C
  H170     1.0000 0.76017  0.12653  0.77953  Biso   1.000  H
  H171     1.0000 0.80327  0.12993  0.81533  Biso   1.000  H
  H172     1.0000 0.78827  0.12303  0.67343  Biso   1.000  H
  C232     1.0000 0.75777  0.07074  0.77873  Biso   1.000  C
  C233     1.0000 0.72945  0.04415  0.69343  Biso   1.000  C
  H173     1.0000 0.72257  0.05513  0.62363  Biso   1.000  H
  C234     1.0000 0.72224  0.92326  0.73863  Biso   1.000  C
  C235     1.0000 0.50706  0.80676  0.34073  Biso   1.000  C
  C236     1.0000 0.57170  0.81374  0.28053  Biso   1.000  C
  H174     1.0000 0.59637  0.81413  0.30383  Biso   1.000  H
  C237     1.0000 0.49980  0.81168  0.21693  Biso   1.000  C
  H175     1.0000 0.47487  0.81083  0.19413  Biso   1.000  H
  C238     1.0000 0.52882  0.81794  0.12573  Biso   1.000  C
  H176     1.0000 0.52357  0.82153  0.04153  Biso   1.000  H
  C239     1.0000 0.54304  0.80810  0.37093  Biso   1.000  C
  H177     1.0000 0.54857  0.80503  0.45533  Biso   1.000  H
  C240     1.0000 0.47577  0.80123  0.44063  Biso   1.000  C
  H178     1.0000 0.48777  0.82533  0.49583  Biso   1.000  H
  H179     1.0000 0.45097  0.79863  0.40113  Biso   1.000  H
  H180     1.0000 0.46847  0.77633  0.48923  Biso   1.000  H
  Sn5      1.0000 0.66667  0.83333  0.83333  Biso   1.000  Sn
  N21      1.0000 0.34870  0.12546  0.08067  Biso   1.000  N
  N22      1.0000 0.28827  0.11767  0.27157  Biso   1.000  N
  C241     1.0000 0.43486  0.18103  0.84337  Biso   1.000  C
  C242     1.0000 0.29715  0.06096  0.18407  Biso   1.000  C
  C243     1.0000 0.37812  0.13626  0.98867  Biso   1.000  C
  C244     1.0000 0.26208  0.12066  0.35517  Biso   1.000  C
  C245     1.0000 0.32985  0.08380  0.10077  Biso   1.000  C
  C246     1.0000 0.28011  0.01541  0.19297  Biso   1.000  C
  C247     1.0000 0.23371  0.07949  0.39837  Biso   1.000  C
  H181     1.0000 0.21203  0.07227  0.45657  Biso   1.000  H
  C248     1.0000 0.40414  0.17629  0.94107  Biso   1.000  C
  C249     1.0000 0.24312  0.05301  0.34227  Biso   1.000  C
  H182     1.0000 0.22943  0.02397  0.35397  Biso   1.000  H
  C250     1.0000 0.28920  0.99815  0.29307  Biso   1.000  C
  H183     1.0000 0.30853  0.01557  0.35357  Biso   1.000  H
  C251     1.0000 0.37757  0.09889  0.95127  Biso   1.000  C
  H184     1.0000 0.39483  0.09697  0.88987  Biso   1.000  H
  C252     1.0000 0.23404  0.94662  0.11877  Biso   1.000  C
  H185     1.0000 0.21523  0.92907  0.05727  Biso   1.000  H
  C253     1.0000 0.25259  0.98874  0.10447  Biso   1.000  C
  H186     1.0000 0.24653  0.99977  0.03317  Biso   1.000  H
  C254     1.0000 0.34836  0.06721  0.01857  Biso   1.000  C
  H187     1.0000 0.34133  0.03907  0.01267  Biso   1.000  H
  C255     1.0000 0.22077  0.88346  0.23977  Biso   1.000  C
  H188     1.0000 0.23983  0.87347  0.22047  Biso   1.000  H
  H189     1.0000 0.19673  0.87007  0.18467  Biso   1.000  H
  H190     1.0000 0.21173  0.87697  0.32657  Biso   1.000  H
  C256     1.0000 0.24223  0.92926  0.22127  Biso   1.000  C
  C257     1.0000 0.27055  0.95585  0.30657  Biso   1.000  C
  H191     1.0000 0.27743  0.94487  0.37637  Biso   1.000  H
  C258     1.0000 0.27776  0.07674  0.26137  Biso   1.000  C
  C259     1.0000 0.49294  0.19324  0.65927  Biso   1.000  C
  C260     1.0000 0.42830  0.18626  0.71947  Biso   1.000  C
  H192     1.0000 0.40363  0.18587  0.69617  Biso   1.000  H
  C261     1.0000 0.50020  0.18832  0.78307  Biso   1.000  C
  H193     1.0000 0.52513  0.18917  0.80587  Biso   1.000  H
  C262     1.0000 0.47118  0.18206  0.87427  Biso   1.000  C
  H194     1.0000 0.47643  0.17847  0.95847  Biso   1.000  H
  C263     1.0000 0.45696  0.19190  0.62907  Biso   1.000  C
  H195     1.0000 0.45143  0.19497  0.54467  Biso   1.000  H
  C264     1.0000 0.52423  0.19877  0.55937  Biso   1.000  C
  H196     1.0000 0.51223  0.17467  0.50417  Biso   1.000  H
  H197     1.0000 0.54903  0.20137  0.59887  Biso   1.000  H
  H198     1.0000 0.53153  0.22367  0.51077  Biso   1.000  H
  N23      1.0000 0.31796  0.20788  0.25267  Biso   1.000  N
  N24      1.0000 0.37839  0.21567  0.06177  Biso   1.000  N
  C265     1.0000 0.23180  0.15231  0.48997  Biso   1.000  C
  C266     1.0000 0.36951  0.27238  0.14927  Biso   1.000  C
  C267     1.0000 0.28854  0.19708  0.34467  Biso   1.000  C
  C268     1.0000 0.40458  0.21268  0.97817  Biso   1.000  C
  C269     1.0000 0.33681  0.24954  0.23257  Biso   1.000  C
  C270     1.0000 0.38655  0.31793  0.14037  Biso   1.000  C
  C271     1.0000 0.43295  0.25385  0.93497  Biso   1.000  C
  H199     1.0000 0.45463  0.26107  0.87677  Biso   1.000  H
  C272     1.0000 0.26252  0.15705  0.39227  Biso   1.000  C
  C273     1.0000 0.42354  0.28033  0.99107  Biso   1.000  C
  H200     1.0000 0.43723  0.30937  0.97937  Biso   1.000  H
  C274     1.0000 0.37746  0.33519  0.04027  Biso   1.000  C
  H201     1.0000 0.35813  0.31777  0.97977  Biso   1.000  H
  C275     1.0000 0.28909  0.23445  0.38207  Biso   1.000  C
  H202     1.0000 0.27183  0.23637  0.44347  Biso   1.000  H
  C276     1.0000 0.43262  0.38672  0.21457  Biso   1.000  C
  H203     1.0000 0.45143  0.40427  0.27607  Biso   1.000  H
  C277     1.0000 0.41407  0.34460  0.22887  Biso   1.000  C
  H204     1.0000 0.42013  0.33357  0.30017  Biso   1.000  H
  C278     1.0000 0.31830  0.26613  0.31477  Biso   1.000  C
  H205     1.0000 0.32533  0.29427  0.32067  Biso   1.000  H
  C279     1.0000 0.44589  0.44988  0.09357  Biso   1.000  C
  H206     1.0000 0.42683  0.45987  0.11287  Biso   1.000  H
  H207     1.0000 0.46993  0.46327  0.14867  Biso   1.000  H
  H208     1.0000 0.45493  0.45637  0.00677  Biso   1.000  H
  C280     1.0000 0.42443  0.40408  0.11207  Biso   1.000  C
  C281     1.0000 0.39611  0.37749  0.02677  Biso   1.000  C
  H209     1.0000 0.38923  0.38847  0.95697  Biso   1.000  H
  C282     1.0000 0.38890  0.25660  0.07197  Biso   1.000  C
  C283     1.0000 0.17372  0.14010  0.67407  Biso   1.000  C
  C284     1.0000 0.23836  0.14708  0.61387  Biso   1.000  C
  H210     1.0000 0.26303  0.14747  0.63717  Biso   1.000  H
  C285     1.0000 0.16646  0.14502  0.55027  Biso   1.000  C
  H211     1.0000 0.14153  0.14417  0.52747  Biso   1.000  H
  C286     1.0000 0.19548  0.15128  0.45907  Biso   1.000  C
  H212     1.0000 0.19023  0.15487  0.37487  Biso   1.000  H
  C287     1.0000 0.20970  0.14144  0.70427  Biso   1.000  C
  H213     1.0000 0.21523  0.13837  0.78867  Biso   1.000  H
  C288     1.0000 0.14243  0.13457  0.77397  Biso   1.000  C
  H214     1.0000 0.15443  0.15867  0.82917  Biso   1.000  H
  H215     1.0000 0.11763  0.13197  0.73447  Biso   1.000  H
  H216     1.0000 0.13513  0.10967  0.82257  Biso   1.000  H
  Sn6      1.0000 0.33333  0.16667  0.16667  Biso   1.000  Sn
  N25      1.0000 0.54121  0.55658  0.41400  Biso   1.000  N
  N26      1.0000 0.54900  0.50394  0.60490  Biso   1.000  N
  C289     1.0000 0.48564  0.58717  0.17670  Biso   1.000  C
  C290     1.0000 0.60571  0.56953  0.51740  Biso   1.000  C
  C291     1.0000 0.53041  0.57520  0.32200  Biso   1.000  C
  C292     1.0000 0.54601  0.47476  0.68850  Biso   1.000  C
  C293     1.0000 0.58287  0.57939  0.43410  Biso   1.000  C
  C294     1.0000 0.65126  0.59804  0.52630  Biso   1.000  C
  C295     1.0000 0.58718  0.48756  0.73170  Biso   1.000  C
  H217     1.0000 0.59440  0.47310  0.78990  Biso   1.000  H
  C296     1.0000 0.49038  0.56119  0.27440  Biso   1.000  C
  C297     1.0000 0.61366  0.52345  0.67560  Biso   1.000  C
  H218     1.0000 0.64270  0.53880  0.68730  Biso   1.000  H
  C298     1.0000 0.66852  0.62439  0.62640  Biso   1.000  C
  H219     1.0000 0.65110  0.62630  0.68690  Biso   1.000  H
  C299     1.0000 0.56778  0.61202  0.28460  Biso   1.000  C
  H220     1.0000 0.56970  0.63120  0.22320  Biso   1.000  H
  C300     1.0000 0.72005  0.62076  0.45210  Biso   1.000  C
  H221     1.0000 0.73760  0.61950  0.39060  Biso   1.000  H
  C301     1.0000 0.67793  0.59719  0.43780  Biso   1.000  C
  H222     1.0000 0.66690  0.58010  0.36650  Biso   1.000  H
  C302     1.0000 0.59946  0.61449  0.35190  Biso   1.000  C
  H223     1.0000 0.62760  0.63560  0.34600  Biso   1.000  H
  C303     1.0000 0.78321  0.67065  0.57310  Biso   1.000  C
  H224     1.0000 0.79320  0.69970  0.55380  Biso   1.000  H
  H225     1.0000 0.79660  0.66000  0.51800  Biso   1.000  H
  H226     1.0000 0.78970  0.66810  0.65990  Biso   1.000  H
  C304     1.0000 0.73741  0.64631  0.55460  Biso   1.000  C
  C305     1.0000 0.71082  0.64804  0.63990  Biso   1.000  C
  H227     1.0000 0.72180  0.66590  0.70970  Biso   1.000  H
  C306     1.0000 0.58993  0.53436  0.59470  Biso   1.000  C
  C307     1.0000 0.47343  0.63304  0.99260  Biso   1.000  C
  C308     1.0000 0.48041  0.57538  0.05280  Biso   1.000  C
  H228     1.0000 0.48080  0.55110  0.02950  Biso   1.000  H
  C309     1.0000 0.47835  0.64522  0.11640  Biso   1.000  C
  H229     1.0000 0.47750  0.66930  0.13920  Biso   1.000  H
  C310     1.0000 0.48461  0.62246  0.20760  Biso   1.000  C
  H230     1.0000 0.48820  0.63130  0.29180  Biso   1.000  H
  C311     1.0000 0.47477  0.59840  0.96240  Biso   1.000  C
  H231     1.0000 0.47170  0.58980  0.87800  Biso   1.000  H
  C312     1.0000 0.46790  0.65880  0.89270  Biso   1.000  C
  H232     1.0000 0.49200  0.67090  0.83750  Biso   1.000  H
  H233     1.0000 0.46530  0.68100  0.93220  Biso   1.000  H
  H234     1.0000 0.44300  0.64120  0.84410  Biso   1.000  H
  N27      1.0000 0.45879  0.44342  0.58600  Biso   1.000  N
  N28      1.0000 0.45100  0.49606  0.39510  Biso   1.000  N
  C313     1.0000 0.51436  0.41283  0.82330  Biso   1.000  C
  C314     1.0000 0.39429  0.43047  0.48260  Biso   1.000  C
  C315     1.0000 0.46959  0.42480  0.67800  Biso   1.000  C
  C316     1.0000 0.45399  0.52524  0.31150  Biso   1.000  C
  C317     1.0000 0.41713  0.42061  0.56590  Biso   1.000  C
  C318     1.0000 0.34874  0.40196  0.47370  Biso   1.000  C
  C319     1.0000 0.41282  0.51244  0.26830  Biso   1.000  C
  H235     1.0000 0.40560  0.52690  0.21010  Biso   1.000  H
  C320     1.0000 0.50962  0.43881  0.72560  Biso   1.000  C
  C321     1.0000 0.38634  0.47655  0.32440  Biso   1.000  C
  H236     1.0000 0.35730  0.46120  0.31270  Biso   1.000  H
  C322     1.0000 0.33148  0.37561  0.37360  Biso   1.000  C
  H237     1.0000 0.34890  0.37370  0.31310  Biso   1.000  H
  C323     1.0000 0.43222  0.38798  0.71540  Biso   1.000  C
  H238     1.0000 0.43030  0.36880  0.77680  Biso   1.000  H
  C324     1.0000 0.27995  0.37924  0.54790  Biso   1.000  C
  H239     1.0000 0.26240  0.38050  0.60940  Biso   1.000  H
  C325     1.0000 0.32207  0.40281  0.56220  Biso   1.000  C
  H240     1.0000 0.33310  0.41990  0.63350  Biso   1.000  H
  C326     1.0000 0.40054  0.38551  0.64810  Biso   1.000  C
  H241     1.0000 0.37240  0.36440  0.65400  Biso   1.000  H
  C327     1.0000 0.21679  0.32935  0.42690  Biso   1.000  C
  H242     1.0000 0.20680  0.30030  0.44620  Biso   1.000  H
  H243     1.0000 0.20340  0.34000  0.48200  Biso   1.000  H
  H244     1.0000 0.21030  0.33190  0.34010  Biso   1.000  H
  C328     1.0000 0.26259  0.35369  0.44540  Biso   1.000  C
  C329     1.0000 0.28918  0.35196  0.36010  Biso   1.000  C
  H245     1.0000 0.27820  0.33410  0.29030  Biso   1.000  H
  C330     1.0000 0.41007  0.46564  0.40530  Biso   1.000  C
  C331     1.0000 0.52657  0.36696  0.00740  Biso   1.000  C
  C332     1.0000 0.51959  0.42462  0.94720  Biso   1.000  C
  H246     1.0000 0.51920  0.44890  0.97050  Biso   1.000  H
  C333     1.0000 0.52165  0.35478  0.88360  Biso   1.000  C
  H247     1.0000 0.52250  0.33070  0.86080  Biso   1.000  H
  C334     1.0000 0.51539  0.37754  0.79240  Biso   1.000  C
  H248     1.0000 0.51180  0.36870  0.70820  Biso   1.000  H
  C335     1.0000 0.52523  0.40160  0.03760  Biso   1.000  C
  H249     1.0000 0.52830  0.41020  0.12200  Biso   1.000  H
  C336     1.0000 0.53210  0.34120  0.10730  Biso   1.000  C
  H250     1.0000 0.50800  0.32910  0.16250  Biso   1.000  H
  H251     1.0000 0.53470  0.31900  0.06780  Biso   1.000  H
  H252     1.0000 0.55700  0.35880  0.15590  Biso   1.000  H
  Sn7      1.0000 0.50000  0.50000  0.50000  Biso   1.000  Sn
  N29      1.0000 0.20788  0.88991  0.74733  Biso   1.000  N
  N30      1.0000 0.21567  0.83727  0.93823  Biso   1.000  N
  C337     1.0000 0.15231  0.92050  0.51003  Biso   1.000  C
  C338     1.0000 0.27238  0.90286  0.85073  Biso   1.000  C
  C339     1.0000 0.19708  0.90853  0.65533  Biso   1.000  C
  C340     1.0000 0.21268  0.80809  0.02183  Biso   1.000  C
  C341     1.0000 0.24954  0.91272  0.76743  Biso   1.000  C
  C342     1.0000 0.31793  0.93137  0.85963  Biso   1.000  C
  C343     1.0000 0.25385  0.82089  0.06503  Biso   1.000  C
  H253     1.0000 0.26107  0.80643  0.12323  Biso   1.000  H
  C344     1.0000 0.15705  0.89452  0.60773  Biso   1.000  C
  C345     1.0000 0.28033  0.85678  0.00893  Biso   1.000  C
  H254     1.0000 0.30937  0.87213  0.02063  Biso   1.000  H
  C346     1.0000 0.33519  0.95772  0.95973  Biso   1.000  C
  H255     1.0000 0.31777  0.95963  0.02023  Biso   1.000  H
  C347     1.0000 0.23445  0.94535  0.61793  Biso   1.000  C
  H256     1.0000 0.23637  0.96453  0.55653  Biso   1.000  H
  C348     1.0000 0.38672  0.95409  0.78543  Biso   1.000  C
  H257     1.0000 0.40427  0.95283  0.72393  Biso   1.000  H
  C349     1.0000 0.34460  0.93052  0.77113  Biso   1.000  C
  H258     1.0000 0.33357  0.91343  0.69983  Biso   1.000  H
  C350     1.0000 0.26613  0.94782  0.68523  Biso   1.000  C
  H259     1.0000 0.29427  0.96893  0.67933  Biso   1.000  H
  C351     1.0000 0.44988  0.00398  0.90643  Biso   1.000  C
  H260     1.0000 0.45987  0.03303  0.88713  Biso   1.000  H
  H261     1.0000 0.46327  0.99333  0.85133  Biso   1.000  H
  H262     1.0000 0.45637  0.00143  0.99323  Biso   1.000  H
  C352     1.0000 0.40408  0.97964  0.88793  Biso   1.000  C
  C353     1.0000 0.37749  0.98137  0.97323  Biso   1.000  C
  H263     1.0000 0.38847  0.99923  0.04303  Biso   1.000  H
  C354     1.0000 0.25660  0.86769  0.92803  Biso   1.000  C
  C355     1.0000 0.14010  0.96637  0.32593  Biso   1.000  C
  C356     1.0000 0.14708  0.90871  0.38613  Biso   1.000  C
  H264     1.0000 0.14747  0.88443  0.36283  Biso   1.000  H
  C357     1.0000 0.14502  0.97855  0.44973  Biso   1.000  C
  H265     1.0000 0.14417  0.00263  0.47253  Biso   1.000  H
  C358     1.0000 0.15128  0.95579  0.54093  Biso   1.000  C
  H266     1.0000 0.15487  0.96463  0.62513  Biso   1.000  H
  C359     1.0000 0.14144  0.93173  0.29573  Biso   1.000  C
  H267     1.0000 0.13837  0.92313  0.21133  Biso   1.000  H
  C360     1.0000 0.13457  0.99213  0.22603  Biso   1.000  C
  H268     1.0000 0.15867  0.00423  0.17083  Biso   1.000  H
  H269     1.0000 0.13197  0.01433  0.26553  Biso   1.000  H
  H270     1.0000 0.10967  0.97453  0.17743  Biso   1.000  H
  N31      1.0000 0.12546  0.77675  0.91933  Biso   1.000  N
  N32      1.0000 0.11767  0.82939  0.72843  Biso   1.000  N
  C361     1.0000 0.18103  0.74616  0.15663  Biso   1.000  C
  C362     1.0000 0.06096  0.76380  0.81593  Biso   1.000  C
  C363     1.0000 0.13626  0.75813  0.01133  Biso   1.000  C
  C364     1.0000 0.12066  0.85857  0.64483  Biso   1.000  C
  C365     1.0000 0.08380  0.75394  0.89923  Biso   1.000  C
  C366     1.0000 0.01541  0.73529  0.80703  Biso   1.000  C
  C367     1.0000 0.07949  0.84577  0.60163  Biso   1.000  C
  H271     1.0000 0.07227  0.86023  0.54343  Biso   1.000  H
  C368     1.0000 0.17629  0.77214  0.05893  Biso   1.000  C
  C369     1.0000 0.05301  0.80988  0.65773  Biso   1.000  C
  H272     1.0000 0.02397  0.79453  0.64603  Biso   1.000  H
  C370     1.0000 0.99815  0.70894  0.70693  Biso   1.000  C
  H273     1.0000 0.01557  0.70703  0.64643  Biso   1.000  H
  C371     1.0000 0.09889  0.72131  0.04873  Biso   1.000  C
  H274     1.0000 0.09697  0.70213  0.11013  Biso   1.000  H
  C372     1.0000 0.94662  0.71257  0.88123  Biso   1.000  C
  H275     1.0000 0.92907  0.71383  0.94273  Biso   1.000  H
  C373     1.0000 0.98874  0.73614  0.89553  Biso   1.000  C
  H276     1.0000 0.99977  0.75323  0.96683  Biso   1.000  H
  C374     1.0000 0.06721  0.71884  0.98143  Biso   1.000  C
  H277     1.0000 0.03907  0.69773  0.98733  Biso   1.000  H
  C375     1.0000 0.88346  0.66268  0.76023  Biso   1.000  C
  H278     1.0000 0.87347  0.63363  0.77953  Biso   1.000  H
  H279     1.0000 0.87007  0.67333  0.81533  Biso   1.000  H
  H280     1.0000 0.87697  0.66523  0.67343  Biso   1.000  H
  C376     1.0000 0.92926  0.68702  0.77873  Biso   1.000  C
  C377     1.0000 0.95585  0.68529  0.69343  Biso   1.000  C
  H281     1.0000 0.94487  0.66743  0.62363  Biso   1.000  H
  C378     1.0000 0.07674  0.79897  0.73863  Biso   1.000  C
  C379     1.0000 0.19324  0.70029  0.34073  Biso   1.000  C
  C380     1.0000 0.18626  0.75795  0.28053  Biso   1.000  C
  H282     1.0000 0.18587  0.78223  0.30383  Biso   1.000  H
  C381     1.0000 0.18832  0.68811  0.21693  Biso   1.000  C
  H283     1.0000 0.18917  0.66403  0.19413  Biso   1.000  H
  C382     1.0000 0.18206  0.71087  0.12573  Biso   1.000  C
  H284     1.0000 0.17847  0.70203  0.04153  Biso   1.000  H
  C383     1.0000 0.19190  0.73493  0.37093  Biso   1.000  C
  H285     1.0000 0.19497  0.74353  0.45533  Biso   1.000  H
  C384     1.0000 0.19877  0.67453  0.44063  Biso   1.000  C
  H286     1.0000 0.17467  0.66243  0.49583  Biso   1.000  H
  H287     1.0000 0.20137  0.65233  0.40113  Biso   1.000  H
  H288     1.0000 0.22367  0.69213  0.48923  Biso   1.000  H
  Sn8      1.0000 0.16667  0.83333  0.83333  Biso   1.000  Sn
  N33      1.0000 0.87454  0.22325  0.08067  Biso   1.000  N
  N34      1.0000 0.88233  0.17061  0.27157  Biso   1.000  N
  C385     1.0000 0.81897  0.25384  0.84337  Biso   1.000  C
  C386     1.0000 0.93904  0.23620  0.18407  Biso   1.000  C
  C387     1.0000 0.86374  0.24187  0.98867  Biso   1.000  C
  C388     1.0000 0.87934  0.14143  0.35517  Biso   1.000  C
  C389     1.0000 0.91620  0.24606  0.10077  Biso   1.000  C
  C390     1.0000 0.98459  0.26471  0.19297  Biso   1.000  C
  C391     1.0000 0.92051  0.15423  0.39837  Biso   1.000  C
  H289     1.0000 0.92773  0.13977  0.45657  Biso   1.000  H
  C392     1.0000 0.82371  0.22786  0.94107  Biso   1.000  C
  C393     1.0000 0.94699  0.19012  0.34227  Biso   1.000  C
  H290     1.0000 0.97603  0.20547  0.35397  Biso   1.000  H
  C394     1.0000 0.00185  0.29106  0.29307  Biso   1.000  C
  H291     1.0000 0.98443  0.29297  0.35357  Biso   1.000  H
  C395     1.0000 0.90111  0.27869  0.95127  Biso   1.000  C
  H292     1.0000 0.90303  0.29787  0.88987  Biso   1.000  H
  C396     1.0000 0.05338  0.28743  0.11877  Biso   1.000  C
  H293     1.0000 0.07093  0.28617  0.05727  Biso   1.000  H
  C397     1.0000 0.01126  0.26386  0.10447  Biso   1.000  C
  H294     1.0000 0.00023  0.24677  0.03317  Biso   1.000  H
  C398     1.0000 0.93279  0.28116  0.01857  Biso   1.000  C
  H295     1.0000 0.96093  0.30227  0.01267  Biso   1.000  H
  C399     1.0000 0.11654  0.33732  0.23977  Biso   1.000  C
  H296     1.0000 0.12653  0.36637  0.22047  Biso   1.000  H
  H297     1.0000 0.12993  0.32667  0.18467  Biso   1.000  H
  H298     1.0000 0.12303  0.33477  0.32657  Biso   1.000  H
  C400     1.0000 0.07074  0.31298  0.22127  Biso   1.000  C
  C401     1.0000 0.04415  0.31471  0.30657  Biso   1.000  C
  H299     1.0000 0.05513  0.33257  0.37637  Biso   1.000  H
  C402     1.0000 0.92326  0.20103  0.26137  Biso   1.000  C
  C403     1.0000 0.80676  0.29971  0.65927  Biso   1.000  C
  C404     1.0000 0.81374  0.24205  0.71947  Biso   1.000  C
  H300     1.0000 0.81413  0.21777  0.69617  Biso   1.000  H
  C405     1.0000 0.81168  0.31189  0.78307  Biso   1.000  C
  H301     1.0000 0.81083  0.33597  0.80587  Biso   1.000  H
  C406     1.0000 0.81794  0.28913  0.87427  Biso   1.000  C
  H302     1.0000 0.82153  0.29797  0.95847  Biso   1.000  H
  C407     1.0000 0.80810  0.26507  0.62907  Biso   1.000  C
  H303     1.0000 0.80503  0.25647  0.54467  Biso   1.000  H
  C408     1.0000 0.80123  0.32547  0.55937  Biso   1.000  C
  H304     1.0000 0.82533  0.33757  0.50417  Biso   1.000  H
  H305     1.0000 0.79863  0.34767  0.59887  Biso   1.000  H
  H306     1.0000 0.77633  0.30787  0.51077  Biso   1.000  H
  N35      1.0000 0.79212  0.11009  0.25267  Biso   1.000  N
  N36      1.0000 0.78433  0.16273  0.06177  Biso   1.000  N
  C409     1.0000 0.84769  0.07950  0.48997  Biso   1.000  C
  C410     1.0000 0.72762  0.09714  0.14927  Biso   1.000  C
  C411     1.0000 0.80292  0.09147  0.34467  Biso   1.000  C
  C412     1.0000 0.78732  0.19191  0.97817  Biso   1.000  C
  C413     1.0000 0.75046  0.08728  0.23257  Biso   1.000  C
  C414     1.0000 0.68207  0.06863  0.14037  Biso   1.000  C
  C415     1.0000 0.74615  0.17911  0.93497  Biso   1.000  C
  H307     1.0000 0.73893  0.19357  0.87677  Biso   1.000  H
  C416     1.0000 0.84295  0.10548  0.39227  Biso   1.000  C
  C417     1.0000 0.71967  0.14322  0.99107  Biso   1.000  C
  H308     1.0000 0.69063  0.12787  0.97937  Biso   1.000  H
  C418     1.0000 0.66481  0.04228  0.04027  Biso   1.000  C
  H309     1.0000 0.68223  0.04037  0.97977  Biso   1.000  H
  C419     1.0000 0.76555  0.05465  0.38207  Biso   1.000  C
  H310     1.0000 0.76363  0.03547  0.44347  Biso   1.000  H
  C420     1.0000 0.61328  0.04591  0.21457  Biso   1.000  C
  H311     1.0000 0.59573  0.04717  0.27607  Biso   1.000  H
  C421     1.0000 0.65540  0.06948  0.22887  Biso   1.000  C
  H312     1.0000 0.66643  0.08657  0.30017  Biso   1.000  H
  C422     1.0000 0.73387  0.05218  0.31477  Biso   1.000  C
  H313     1.0000 0.70573  0.03107  0.32067  Biso   1.000  H
  C423     1.0000 0.55012  0.99602  0.09357  Biso   1.000  C
  H314     1.0000 0.54013  0.96697  0.11287  Biso   1.000  H
  H315     1.0000 0.53673  0.00667  0.14867  Biso   1.000  H
  H316     1.0000 0.54363  0.99857  0.00677  Biso   1.000  H
  C424     1.0000 0.59592  0.02036  0.11207  Biso   1.000  C
  C425     1.0000 0.62251  0.01863  0.02677  Biso   1.000  C
  H317     1.0000 0.61153  0.00077  0.95697  Biso   1.000  H
  C426     1.0000 0.74340  0.13231  0.07197  Biso   1.000  C
  C427     1.0000 0.85990  0.03363  0.67407  Biso   1.000  C
  C428     1.0000 0.85292  0.09129  0.61387  Biso   1.000  C
  H318     1.0000 0.85253  0.11557  0.63717  Biso   1.000  H
  C429     1.0000 0.85498  0.02145  0.55027  Biso   1.000  C
  H319     1.0000 0.85583  0.99737  0.52747  Biso   1.000  H
  C430     1.0000 0.84872  0.04421  0.45907  Biso   1.000  C
  H320     1.0000 0.84513  0.03537  0.37487  Biso   1.000  H
  C431     1.0000 0.85856  0.06827  0.70427  Biso   1.000  C
  H321     1.0000 0.86163  0.07687  0.78867  Biso   1.000  H
  C432     1.0000 0.86543  0.00787  0.77397  Biso   1.000  C
  H322     1.0000 0.84133  0.99577  0.82917  Biso   1.000  H
  H323     1.0000 0.86803  0.98567  0.73447  Biso   1.000  H
  H324     1.0000 0.89033  0.02547  0.82257  Biso   1.000  H
  Sn9      1.0000 0.83333  0.16667  0.16667  Biso   1.000  Sn
