data_image0
_cell_length_a       23.2646
_cell_length_b       31.545
_cell_length_c       23.7317
_cell_angle_alpha    90
_cell_angle_beta     102.528
_cell_angle_gamma    90

_symmetry_space_group_name_H-M    "P 1"
_symmetry_int_tables_number       1

loop_
  _symmetry_equiv_pos_as_xyz
  'x, y, z'

loop_
  _atom_site_label
  _atom_site_occupancy
  _atom_site_fract_x
  _atom_site_fract_y
  _atom_site_fract_z
  _atom_site_thermal_displace_type
  _atom_site_B_iso_or_equiv
  _atom_site_type_symbol
  Cu1      1.0000 0.04385  0.51930  0.88893  Biso   1.000  Cu
  Cu2      1.0000 0.98464  0.77156  0.80140  Biso   1.000  Cu
  Cu3      1.0000 0.28808  0.88403  0.04887  Biso   1.000  Cu
  Cu4      1.0000 0.56289  0.72668  0.22384  Biso   1.000  Cu
  Cu5      1.0000 0.40277  0.50461  0.08466  Biso   1.000  Cu
  Mn1      1.0000 0.87635  0.61770  0.75913  Biso   1.000  Mn
  Mn2      1.0000 0.06397  0.91438  0.92456  Biso   1.000  Mn
  Mn3      1.0000 0.52784  0.87608  0.10643  Biso   1.000  Mn
  Mn4      1.0000 0.60351  0.55619  0.23122  Biso   1.000  Mn
  Mn5      1.0000 0.22204  0.40732  0.96540  Biso   1.000  Mn
  C1       1.0000 0.16110  0.76000  0.88590  Biso   1.000  C
  H1       1.0000 0.18470  0.73370  0.89120  Biso   1.000  H
  H2       1.0000 0.12050  0.75290  0.88920  Biso   1.000  H
  C2       1.0000 0.19720  0.81130  0.03760  Biso   1.000  C
  C3       1.0000 0.16930  0.87840  0.00100  Biso   1.000  C
  C4       1.0000 0.19400  0.80100  0.09410  Biso   1.000  C
  H3       1.0000 0.20010  0.82240  0.12290  Biso   1.000  H
  C5       1.0000 0.18730  0.78040  0.99410  Biso   1.000  C
  C6       1.0000 0.18760  0.92340  0.98790  Biso   1.000  C
  C7       1.0000 0.05160  0.84100  0.84690  Biso   1.000  C
  C8       1.0000 0.18820  0.79270  0.93340  Biso   1.000  C
  H4       1.0000 0.22960  0.79780  0.93110  Biso   1.000  H
  H5       1.0000 0.16680  0.81980  0.92470  Biso   1.000  H
  C9       1.0000 0.17600  0.72900  0.06710  Biso   1.000  C
  H6       1.0000 0.17080  0.70030  0.07730  Biso   1.000  H
  C10      1.0000 0.15990  0.77770  0.82900  Biso   1.000  C
  C11      1.0000 0.17710  0.73900  0.01150  Biso   1.000  C
  H7       1.0000 0.17080  0.71710  0.98330  Biso   1.000  H
  C12      1.0000 0.11030  0.80080  0.79730  Biso   1.000  C
  C13      1.0000 0.18230  0.76020  0.10840  Biso   1.000  C
  H8       1.0000 0.17850  0.75370  0.14660  Biso   1.000  H
  C14      1.0000 0.16260  0.81240  0.72100  Biso   1.000  C
  H9       1.0000 0.16440  0.82420  0.68460  Biso   1.000  H
  C15      1.0000 0.20980  0.78980  0.75230  Biso   1.000  C
  H10      1.0000 0.24350  0.78550  0.73640  Biso   1.000  H
  C16      1.0000 0.11160  0.81770  0.74360  Biso   1.000  C
  H11      1.0000 0.07860  0.83270  0.72230  Biso   1.000  H
  C17      1.0000 0.20940  0.77380  0.80440  Biso   1.000  C
  H12      1.0000 0.24330  0.75940  0.82520  Biso   1.000  H
  C18      1.0000 0.99370  0.84360  0.86560  Biso   1.000  C
  O1       1.0000 0.08700  0.87070  0.85880  Biso   1.000  O
  O2       1.0000 0.23990  0.93420  0.01130  Biso   1.000  O
  O3       1.0000 0.14980  0.94610  0.95600  Biso   1.000  O
  O4       1.0000 0.98710  0.87310  0.89910  Biso   1.000  O
  O5       1.0000 0.95500  0.81640  0.84700  Biso   1.000  O
  O6       1.0000 0.11470  0.86940  0.98680  Biso   1.000  O
  N1       1.0000 0.21220  0.85350  0.02410  Biso   1.000  N
  N2       1.0000 0.05740  0.80570  0.81920  Biso   1.000  N
  C19      1.0000 0.57690  0.79650  0.16110  Biso   1.000  C
  C20      1.0000 0.34730  0.80600  0.00350  Biso   1.000  C
  C21      1.0000 0.39740  0.77540  0.19590  Biso   1.000  C
  C22      1.0000 0.35370  0.80440  0.94630  Biso   1.000  C
  H13      1.0000 0.36180  0.82970  0.92770  Biso   1.000  H
  C23      1.0000 0.33530  0.76870  0.03140  Biso   1.000  C
  C24      1.0000 0.45170  0.77800  0.23320  Biso   1.000  C
  C25      1.0000 0.52110  0.80500  0.18350  Biso   1.000  C
  C26      1.0000 0.40570  0.86190  0.04900  Biso   1.000  C
  C27      1.0000 0.40510  0.90570  0.07770  Biso   1.000  C
  C28      1.0000 0.39380  0.76720  0.13230  Biso   1.000  C
  H14      1.0000 0.41090  0.73890  0.12830  Biso   1.000  H
  H15      1.0000 0.41860  0.78830  0.11800  Biso   1.000  H
  C29      1.0000 0.34860  0.76640  0.91640  Biso   1.000  C
  H16      1.0000 0.35400  0.76580  0.87780  Biso   1.000  H
  C30      1.0000 0.34750  0.78160  0.21840  Biso   1.000  C
  H17      1.0000 0.30960  0.78000  0.19350  Biso   1.000  H
  C31      1.0000 0.35230  0.79000  0.27650  Biso   1.000  C
  H18      1.0000 0.31760  0.79380  0.29100  Biso   1.000  H
  C32      1.0000 0.45710  0.78700  0.29180  Biso   1.000  C
  H19      1.0000 0.49520  0.78900  0.31630  Biso   1.000  H
  C33      1.0000 0.32970  0.73070  0.99900  Biso   1.000  C
  H20      1.0000 0.32160  0.70510  0.01690  Biso   1.000  H
  C34      1.0000 0.33180  0.76870  0.09330  Biso   1.000  C
  H21      1.0000 0.30890  0.74380  0.10130  Biso   1.000  H
  H22      1.0000 0.31130  0.79460  0.10190  Biso   1.000  H
  C35      1.0000 0.40790  0.79310  0.31450  Biso   1.000  C
  H23      1.0000 0.41130  0.79910  0.35430  Biso   1.000  H
  C36      1.0000 0.33570  0.72950  0.94180  Biso   1.000  C
  H24      1.0000 0.33090  0.70360  0.92090  Biso   1.000  H
  O7       1.0000 0.49540  0.84026  0.17220  Biso   1.000  O
  O8       1.0000 0.45380  0.84662  0.04520  Biso   1.000  O
  O9       1.0000 0.45340  0.92148  0.09970  Biso   1.000  O
  O10      1.0000 0.58990  0.82360  0.12550  Biso   1.000  O
  O11      1.0000 0.60530  0.76413  0.17810  Biso   1.000  O
  O12      1.0000 0.35500  0.92223  0.07580  Biso   1.000  O
  N3       1.0000 0.50500  0.77300  0.21180  Biso   1.000  N
  N4       1.0000 0.35160  0.84560  0.03220  Biso   1.000  N
  C37      1.0000 0.00240  0.59400  0.95250  Biso   1.000  C
  C38      1.0000 0.95560  0.57790  0.85700  Biso   1.000  C
  C39      1.0000 0.04870  0.62380  0.96780  Biso   1.000  C
  C40      1.0000 0.14700  0.65300  0.83110  Biso   1.000  C
  H25      1.0000 0.16530  0.63570  0.86260  Biso   1.000  H
  C41      1.0000 0.95340  0.54770  0.80700  Biso   1.000  C
  C42      1.0000 0.96190  0.58910  0.98770  Biso   1.000  C
  H26      1.0000 0.93050  0.56940  0.97740  Biso   1.000  H
  C43      1.0000 0.08900  0.63230  0.92690  Biso   1.000  C
  H27      1.0000 0.09780  0.60540  0.90910  Biso   1.000  H
  H28      1.0000 0.12650  0.64440  0.94860  Biso   1.000  H
  C44      1.0000 0.09240  0.67020  0.83110  Biso   1.000  C
  C45      1.0000 0.06000  0.66300  0.88020  Biso   1.000  C
  H29      1.0000 0.05570  0.69060  0.89840  Biso   1.000  H
  H30      1.0000 0.01990  0.65240  0.86310  Biso   1.000  H
  C46      1.0000 0.96730  0.61290  0.03790  Biso   1.000  C
  H31      1.0000 0.93960  0.60940  0.06160  Biso   1.000  H
  C47      1.0000 0.05270  0.64650  0.01760  Biso   1.000  C
  H32      1.0000 0.08390  0.66630  0.02840  Biso   1.000  H
  C48      1.0000 0.06410  0.69580  0.78480  Biso   1.000  C
  C49      1.0000 0.01270  0.64160  0.05320  Biso   1.000  C
  H33      1.0000 0.01670  0.65790  0.08760  Biso   1.000  H
  C50      1.0000 0.17590  0.66030  0.78660  Biso   1.000  C
  H34      1.0000 0.21380  0.64830  0.78840  Biso   1.000  H
  C51      1.0000 0.96200  0.68780  0.77130  Biso   1.000  C
  C52      1.0000 0.90380  0.70730  0.78000  Biso   1.000  C
  C53      1.0000 0.09330  0.70250  0.73890  Biso   1.000  C
  H35      1.0000 0.07490  0.71920  0.70670  Biso   1.000  H
  C54      1.0000 0.15010  0.68450  0.74030  Biso   1.000  C
  H36      1.0000 0.16950  0.68930  0.70950  Biso   1.000  H
  O13      1.0000 0.98940  0.51680  0.81430  Biso   1.000  O
  O14      1.0000 0.95980  0.64920  0.75470  Biso   1.000  O
  O15      1.0000 0.91810  0.55600  0.76010  Biso   1.000  O
  O16      1.0000 0.85970  0.68400  0.77290  Biso   1.000  O
  O17      1.0000 0.90510  0.74540  0.79240  Biso   1.000  O
  O18      1.0000 0.91940  0.60780  0.85150  Biso   1.000  O
  N5       1.0000 0.99750  0.56850  0.90250  Biso   1.000  N
  N6       1.0000 0.00790  0.71320  0.78320  Biso   1.000  N
  C55      1.0000 0.34230  0.53740  0.96170  Biso   1.000  C
  C56      1.0000 0.31440  0.47280  0.99770  Biso   1.000  C
  C57      1.0000 0.11680  0.53210  0.01440  Biso   1.000  C
  C58      1.0000 0.26870  0.57980  0.00420  Biso   1.000  C
  H37      1.0000 0.26030  0.61040  0.00730  Biso   1.000  H
  H38      1.0000 0.29000  0.56980  0.04260  Biso   1.000  H
  C59      1.0000 0.13200  0.47390  0.95890  Biso   1.000  C
  C60      1.0000 0.32240  0.44170  0.04840  Biso   1.000  C
  C61      1.0000 0.16960  0.55550  0.02740  Biso   1.000  C
  C62      1.0000 0.30630  0.57330  0.96070  Biso   1.000  C
  C63      1.0000 0.21030  0.55520  0.98580  Biso   1.000  C
  H39      1.0000 0.18860  0.56700  0.94850  Biso   1.000  H
  H40      1.0000 0.21980  0.52530  0.97870  Biso   1.000  H
  C64      1.0000 0.37470  0.53170  0.91910  Biso   1.000  C
  H41      1.0000 0.39810  0.50690  0.91930  Biso   1.000  H
  C65      1.0000 0.30460  0.60230  0.91540  Biso   1.000  C
  H42      1.0000 0.27930  0.62620  0.91280  Biso   1.000  H
  C66      1.0000 0.12010  0.45330  0.89870  Biso   1.000  C
  C67      1.0000 0.33770  0.59750  0.87520  Biso   1.000  C
  H43      1.0000 0.33670  0.61840  0.84620  Biso   1.000  H
  C68      1.0000 0.07990  0.53030  0.05340  Biso   1.000  C
  H44      1.0000 0.04450  0.51440  0.04420  Biso   1.000  H
  C69      1.0000 0.18260  0.57680  0.07990  Biso   1.000  C
  H45      1.0000 0.21750  0.59340  0.08930  Biso   1.000  H
  C70      1.0000 0.37280  0.56190  0.87660  Biso   1.000  C
  H46      1.0000 0.39570  0.55830  0.84830  Biso   1.000  H
  C71      1.0000 0.14590  0.57470  0.11920  Biso   1.000  C
  H47      1.0000 0.15630  0.58910  0.15510  Biso   1.000  H
  C72      1.0000 0.09460  0.55170  0.10590  Biso   1.000  C
  H48      1.0000 0.06930  0.55040  0.13230  Biso   1.000  H
  O19      1.0000 0.27620  0.46325  0.95270  Biso   1.000  O
  O20      1.0000 0.36180  0.45063  0.09230  Biso   1.000  O
  O21      1.0000 0.16880  0.45622  0.99880  Biso   1.000  O
  O22      1.0000 0.29060  0.40924  0.04330  Biso   1.000  O
  O23      1.0000 0.15100  0.42256  0.89100  Biso   1.000  O
  O24      1.0000 0.07960  0.46980  0.86100  Biso   1.000  O
  N7       1.0000 0.10160  0.50880  0.96140  Biso   1.000  N
  N8       1.0000 0.34770  0.50670  0.00750  Biso   1.000  N
  C73      1.0000 0.45490  0.66770  0.22690  Biso   1.000  C
  C74      1.0000 0.42960  0.67660  0.27350  Biso   1.000  C
  H49      1.0000 0.45330  0.68650  0.30880  Biso   1.000  H
  C75      1.0000 0.36920  0.67070  0.26810  Biso   1.000  C
  H50      1.0000 0.35170  0.67660  0.29990  Biso   1.000  H
  C76      1.0000 0.33460  0.65640  0.21650  Biso   1.000  C
  H51      1.0000 0.29350  0.65220  0.21270  Biso   1.000  H
  C77      1.0000 0.47730  0.57200  0.03510  Biso   1.000  C
  C78      1.0000 0.55000  0.64010  0.23760  Biso   1.000  C
  C79      1.0000 0.44720  0.61030  0.02850  Biso   1.000  C
  C80      1.0000 0.50180  0.50760  0.16980  Biso   1.000  C
  C81      1.0000 0.51380  0.54050  0.12630  Biso   1.000  C
  C82      1.0000 0.41060  0.62430  0.07100  Biso   1.000  C
  H52      1.0000 0.38920  0.59970  0.08200  Biso   1.000  H
  H53      1.0000 0.38120  0.64560  0.05240  Biso   1.000  H
  C83      1.0000 0.45350  0.63720  0.98330  Biso   1.000  C
  H54      1.0000 0.43340  0.66360  0.97820  Biso   1.000  H
  C84      1.0000 0.51270  0.56050  0.99770  Biso   1.000  C
  H55      1.0000 0.53310  0.53420  0.00270  Biso   1.000  H
  C85      1.0000 0.48920  0.62540  0.94560  Biso   1.000  C
  H56      1.0000 0.49320  0.64370  0.91490  Biso   1.000  H
  C86      1.0000 0.45020  0.64370  0.12530  Biso   1.000  C
  H57      1.0000 0.48330  0.62390  0.13940  Biso   1.000  H
  H58      1.0000 0.46730  0.67030  0.11400  Biso   1.000  H
  C87      1.0000 0.61410  0.64880  0.23260  Biso   1.000  C
  C88      1.0000 0.42130  0.65350  0.17480  Biso   1.000  C
  C89      1.0000 0.36090  0.64820  0.17080  Biso   1.000  C
  H59      1.0000 0.33710  0.63860  0.13540  Biso   1.000  H
  C90      1.0000 0.51840  0.58750  0.95280  Biso   1.000  C
  H60      1.0000 0.54260  0.57960  0.92710  Biso   1.000  H
  N9       1.0000 0.46990  0.54310  0.08090  Biso   1.000  N
  N10      1.0000 0.51670  0.67430  0.23210  Biso   1.000  N
  O25      1.0000 0.62890  0.68647  0.22780  Biso   1.000  O
  O26      1.0000 0.64790  0.61754  0.23310  Biso   1.000  O
  O27      1.0000 0.53530  0.60208  0.24310  Biso   1.000  O
  O28      1.0000 0.45560  0.48677  0.15820  Biso   1.000  O
  O29      1.0000 0.56140  0.56074  0.13810  Biso   1.000  O
  O30      1.0000 0.54020  0.50455  0.21690  Biso   1.000  O
  S1       1.0000 0.31508  0.33838  0.94162  Biso   1.000  S
  O31      1.0000 0.26010  0.36510  0.91330  Biso   1.000  O
  C91      1.0000 0.31740  0.29440  0.89500  Biso   1.000  C
  H61      1.0000 0.35150  0.27660  0.91120  Biso   1.000  H
  H62      1.0000 0.28120  0.27770  0.89130  Biso   1.000  H
  H63      1.0000 0.32070  0.30480  0.85690  Biso   1.000  H
  C92      1.0000 0.37670  0.36550  0.92610  Biso   1.000  C
  H64      1.0000 0.41280  0.35000  0.94310  Biso   1.000  H
  H65      1.0000 0.37260  0.36740  0.88420  Biso   1.000  H
  H66      1.0000 0.37880  0.39410  0.94260  Biso   1.000  H
  S2       1.0000 0.29990  0.34870  0.88340  Biso   1.000  S
  O32      1.0000 0.26010  0.35970  0.92660  Biso   1.000  O
  C93      1.0000 0.30350  0.29560  0.88320  Biso   1.000  C
  H67      1.0000 0.32800  0.28640  0.85670  Biso   1.000  H
  H68      1.0000 0.32070  0.28540  0.92220  Biso   1.000  H
  H69      1.0000 0.26380  0.28390  0.87050  Biso   1.000  H
  C94      1.0000 0.36990  0.37070  0.92190  Biso   1.000  C
  H70      1.0000 0.39990  0.36600  0.89930  Biso   1.000  H
  H71      1.0000 0.36550  0.40120  0.92760  Biso   1.000  H
  H72      1.0000 0.38200  0.35670  0.95950  Biso   1.000  H
  S3       1.0000 0.28420  0.91080  0.18880  Biso   1.000  S
  O33      1.0000 0.26950  0.88460  0.13540  Biso   1.000  O
  C95      1.0000 0.36150  0.91600  0.21600  Biso   1.000  C
  H73      1.0000 0.36870  0.93350  0.25100  Biso   1.000  H
  H74      1.0000 0.37900  0.88790  0.22520  Biso   1.000  H
  H75      1.0000 0.37940  0.92960  0.18680  Biso   1.000  H
  C96      1.0000 0.27320  0.96310  0.16350  Biso   1.000  C
  H76      1.0000 0.28200  0.98270  0.19630  Biso   1.000  H
  H77      1.0000 0.29930  0.96900  0.13720  Biso   1.000  H
  H78      1.0000 0.23210  0.96670  0.14300  Biso   1.000  H
  S4       1.0000 0.30533  0.89247  0.20051  Biso   1.000  S
  O34      1.0000 0.28600  0.87230  0.14300  Biso   1.000  O
  C97      1.0000 0.38370  0.89320  0.21720  Biso   1.000  C
  H79      1.0000 0.39780  0.90630  0.25510  Biso   1.000  H
  H80      1.0000 0.39850  0.86410  0.21800  Biso   1.000  H
  H81      1.0000 0.39780  0.90950  0.18780  Biso   1.000  H
  C98      1.0000 0.29630  0.94820  0.19390  Biso   1.000  C
  H82      1.0000 0.30910  0.96140  0.23190  Biso   1.000  H
  H83      1.0000 0.32010  0.95910  0.16770  Biso   1.000  H
  H84      1.0000 0.25470  0.95480  0.17830  Biso   1.000  H
  Cu6      1.0000 0.95615  0.01930  0.61107  Biso   1.000  Cu
  Cu7      1.0000 0.01536  0.27156  0.69860  Biso   1.000  Cu
  Cu8      1.0000 0.71192  0.38403  0.45113  Biso   1.000  Cu
  Cu9      1.0000 0.43711  0.22668  0.27616  Biso   1.000  Cu
  Cu10     1.0000 0.59723  0.00461  0.41534  Biso   1.000  Cu
  Mn6      1.0000 0.12365  0.11770  0.74087  Biso   1.000  Mn
  Mn7      1.0000 0.93603  0.41438  0.57544  Biso   1.000  Mn
  Mn8      1.0000 0.47216  0.37608  0.39357  Biso   1.000  Mn
  Mn9      1.0000 0.39649  0.05619  0.26878  Biso   1.000  Mn
  Mn10     1.0000 0.77796  0.90732  0.53460  Biso   1.000  Mn
  C99      1.0000 0.83890  0.26000  0.61410  Biso   1.000  C
  H85      1.0000 0.81530  0.23370  0.60880  Biso   1.000  H
  H86      1.0000 0.87950  0.25290  0.61080  Biso   1.000  H
  C100     1.0000 0.80280  0.31130  0.46240  Biso   1.000  C
  C101     1.0000 0.83070  0.37840  0.49900  Biso   1.000  C
  C102     1.0000 0.80600  0.30100  0.40590  Biso   1.000  C
  H87      1.0000 0.79990  0.32240  0.37710  Biso   1.000  H
  C103     1.0000 0.81270  0.28040  0.50590  Biso   1.000  C
  C104     1.0000 0.81240  0.42340  0.51210  Biso   1.000  C
  C105     1.0000 0.94840  0.34100  0.65310  Biso   1.000  C
  C106     1.0000 0.81180  0.29270  0.56660  Biso   1.000  C
  H88      1.0000 0.77040  0.29780  0.56890  Biso   1.000  H
  H89      1.0000 0.83320  0.31980  0.57530  Biso   1.000  H
  C107     1.0000 0.82400  0.22900  0.43290  Biso   1.000  C
  H90      1.0000 0.82920  0.20030  0.42270  Biso   1.000  H
  C108     1.0000 0.84010  0.27770  0.67100  Biso   1.000  C
  C109     1.0000 0.82290  0.23900  0.48850  Biso   1.000  C
  H91      1.0000 0.82920  0.21710  0.51670  Biso   1.000  H
  C110     1.0000 0.88970  0.30080  0.70270  Biso   1.000  C
  C111     1.0000 0.81770  0.26020  0.39160  Biso   1.000  C
  H92      1.0000 0.82150  0.25370  0.35340  Biso   1.000  H
  C112     1.0000 0.83740  0.31240  0.77900  Biso   1.000  C
  H93      1.0000 0.83560  0.32420  0.81540  Biso   1.000  H
  C113     1.0000 0.79020  0.28980  0.74770  Biso   1.000  C
  H94      1.0000 0.75650  0.28550  0.76360  Biso   1.000  H
  C114     1.0000 0.88840  0.31770  0.75640  Biso   1.000  C
  H95      1.0000 0.92140  0.33270  0.77770  Biso   1.000  H
  C115     1.0000 0.79060  0.27380  0.69560  Biso   1.000  C
  H96      1.0000 0.75670  0.25940  0.67480  Biso   1.000  H
  C116     1.0000 0.00630  0.34360  0.63440  Biso   1.000  C
  O35      1.0000 0.91300  0.37070  0.64120  Biso   1.000  O
  O36      1.0000 0.76010  0.43420  0.48870  Biso   1.000  O
  O37      1.0000 0.85020  0.44610  0.54400  Biso   1.000  O
  O38      1.0000 0.01290  0.37310  0.60090  Biso   1.000  O
  O39      1.0000 0.04500  0.31640  0.65300  Biso   1.000  O
  O40      1.0000 0.88530  0.36940  0.51320  Biso   1.000  O
  N11      1.0000 0.78780  0.35350  0.47590  Biso   1.000  N
  N12      1.0000 0.94260  0.30570  0.68080  Biso   1.000  N
  C117     1.0000 0.42310  0.29650  0.33890  Biso   1.000  C
  C118     1.0000 0.65270  0.30600  0.49650  Biso   1.000  C
  C119     1.0000 0.60260  0.27540  0.30410  Biso   1.000  C
  C120     1.0000 0.64630  0.30440  0.55370  Biso   1.000  C
  H97      1.0000 0.63820  0.32970  0.57230  Biso   1.000  H
  C121     1.0000 0.66470  0.26870  0.46860  Biso   1.000  C
  C122     1.0000 0.54830  0.27800  0.26680  Biso   1.000  C
  C123     1.0000 0.47890  0.30500  0.31650  Biso   1.000  C
  C124     1.0000 0.59430  0.36190  0.45100  Biso   1.000  C
  C125     1.0000 0.59490  0.40570  0.42230  Biso   1.000  C
  C126     1.0000 0.60620  0.26720  0.36770  Biso   1.000  C
  H98      1.0000 0.58910  0.23890  0.37170  Biso   1.000  H
  H99      1.0000 0.58140  0.28830  0.38200  Biso   1.000  H
  C127     1.0000 0.65140  0.26640  0.58360  Biso   1.000  C
  H100     1.0000 0.64600  0.26580  0.62220  Biso   1.000  H
  C128     1.0000 0.65250  0.28160  0.28160  Biso   1.000  C
  H101     1.0000 0.69040  0.28000  0.30650  Biso   1.000  H
  C129     1.0000 0.64770  0.29000  0.22350  Biso   1.000  C
  H102     1.0000 0.68240  0.29380  0.20900  Biso   1.000  H
  C130     1.0000 0.54290  0.28700  0.20820  Biso   1.000  C
  H103     1.0000 0.50480  0.28900  0.18370  Biso   1.000  H
  C131     1.0000 0.67030  0.23070  0.50100  Biso   1.000  C
  H104     1.0000 0.67840  0.20510  0.48310  Biso   1.000  H
  C132     1.0000 0.66820  0.26870  0.40670  Biso   1.000  C
  H105     1.0000 0.69110  0.24380  0.39870  Biso   1.000  H
  H106     1.0000 0.68870  0.29460  0.39810  Biso   1.000  H
  C133     1.0000 0.59210  0.29310  0.18550  Biso   1.000  C
  H107     1.0000 0.58870  0.29910  0.14570  Biso   1.000  H
  C134     1.0000 0.66430  0.22950  0.55820  Biso   1.000  C
  H108     1.0000 0.66910  0.20360  0.57910  Biso   1.000  H
  O41      1.0000 0.50460  0.34026  0.32780  Biso   1.000  O
  O42      1.0000 0.54620  0.34662  0.45480  Biso   1.000  O
  O43      1.0000 0.54660  0.42148  0.40030  Biso   1.000  O
  O44      1.0000 0.41010  0.32360  0.37450  Biso   1.000  O
  O45      1.0000 0.39470  0.26413  0.32190  Biso   1.000  O
  O46      1.0000 0.64500  0.42223  0.42420  Biso   1.000  O
  N13      1.0000 0.49500  0.27300  0.28820  Biso   1.000  N
  N14      1.0000 0.64840  0.34560  0.46780  Biso   1.000  N
  C135     1.0000 0.99760  0.09400  0.54750  Biso   1.000  C
  C136     1.0000 0.04440  0.07790  0.64300  Biso   1.000  C
  C137     1.0000 0.95130  0.12380  0.53220  Biso   1.000  C
  C138     1.0000 0.85300  0.15300  0.66890  Biso   1.000  C
  H109     1.0000 0.83470  0.13570  0.63740  Biso   1.000  H
  C139     1.0000 0.04660  0.04770  0.69300  Biso   1.000  C
  C140     1.0000 0.03810  0.08910  0.51230  Biso   1.000  C
  H110     1.0000 0.06950  0.06940  0.52260  Biso   1.000  H
  C141     1.0000 0.91100  0.13230  0.57310  Biso   1.000  C
  H111     1.0000 0.90220  0.10540  0.59090  Biso   1.000  H
  H112     1.0000 0.87350  0.14440  0.55140  Biso   1.000  H
  C142     1.0000 0.90760  0.17020  0.66890  Biso   1.000  C
  C143     1.0000 0.94000  0.16300  0.61980  Biso   1.000  C
  H113     1.0000 0.94430  0.19060  0.60160  Biso   1.000  H
  H114     1.0000 0.98010  0.15240  0.63690  Biso   1.000  H
  C144     1.0000 0.03270  0.11290  0.46210  Biso   1.000  C
  H115     1.0000 0.06040  0.10940  0.43840  Biso   1.000  H
  C145     1.0000 0.94730  0.14650  0.48240  Biso   1.000  C
  H116     1.0000 0.91610  0.16630  0.47160  Biso   1.000  H
  C146     1.0000 0.93590  0.19580  0.71520  Biso   1.000  C
  C147     1.0000 0.98730  0.14160  0.44680  Biso   1.000  C
  H117     1.0000 0.98330  0.15790  0.41240  Biso   1.000  H
  C148     1.0000 0.82410  0.16030  0.71340  Biso   1.000  C
  H118     1.0000 0.78620  0.14830  0.71160  Biso   1.000  H
  C149     1.0000 0.03800  0.18780  0.72870  Biso   1.000  C
  C150     1.0000 0.09620  0.20730  0.72000  Biso   1.000  C
  C151     1.0000 0.90670  0.20250  0.76110  Biso   1.000  C
  H119     1.0000 0.92510  0.21920  0.79330  Biso   1.000  H
  C152     1.0000 0.84990  0.18450  0.75970  Biso   1.000  C
  H120     1.0000 0.83050  0.18930  0.79050  Biso   1.000  H
  O47      1.0000 0.01060  0.01680  0.68570  Biso   1.000  O
  O48      1.0000 0.04020  0.14920  0.74530  Biso   1.000  O
  O49      1.0000 0.08190  0.05600  0.73990  Biso   1.000  O
  O50      1.0000 0.14030  0.18400  0.72710  Biso   1.000  O
  O51      1.0000 0.09490  0.24540  0.70760  Biso   1.000  O
  O52      1.0000 0.08060  0.10780  0.64850  Biso   1.000  O
  N15      1.0000 0.00250  0.06850  0.59750  Biso   1.000  N
  N16      1.0000 0.99210  0.21320  0.71680  Biso   1.000  N
  C153     1.0000 0.65770  0.03740  0.53830  Biso   1.000  C
  C154     1.0000 0.68560  0.97280  0.50230  Biso   1.000  C
  C155     1.0000 0.88320  0.03210  0.48560  Biso   1.000  C
  C156     1.0000 0.73130  0.07980  0.49580  Biso   1.000  C
  H121     1.0000 0.73970  0.11040  0.49270  Biso   1.000  H
  H122     1.0000 0.71000  0.06980  0.45740  Biso   1.000  H
  C157     1.0000 0.86800  0.97390  0.54110  Biso   1.000  C
  C158     1.0000 0.67760  0.94170  0.45160  Biso   1.000  C
  C159     1.0000 0.83040  0.05550  0.47260  Biso   1.000  C
  C160     1.0000 0.69370  0.07330  0.53930  Biso   1.000  C
  C161     1.0000 0.78970  0.05520  0.51420  Biso   1.000  C
  H123     1.0000 0.81140  0.06700  0.55150  Biso   1.000  H
  H124     1.0000 0.78020  0.02530  0.52130  Biso   1.000  H
  C162     1.0000 0.62530  0.03170  0.58090  Biso   1.000  C
  H125     1.0000 0.60190  0.00690  0.58070  Biso   1.000  H
  C163     1.0000 0.69540  0.10230  0.58460  Biso   1.000  C
  H126     1.0000 0.72070  0.12620  0.58720  Biso   1.000  H
  C164     1.0000 0.87990  0.95330  0.60130  Biso   1.000  C
  C165     1.0000 0.66230  0.09750  0.62480  Biso   1.000  C
  H127     1.0000 0.66330  0.11840  0.65380  Biso   1.000  H
  C166     1.0000 0.92010  0.03030  0.44660  Biso   1.000  C
  H128     1.0000 0.95550  0.01440  0.45580  Biso   1.000  H
  C167     1.0000 0.81740  0.07680  0.42010  Biso   1.000  C
  H129     1.0000 0.78250  0.09340  0.41070  Biso   1.000  H
  C168     1.0000 0.62720  0.06190  0.62340  Biso   1.000  C
  H130     1.0000 0.60430  0.05830  0.65170  Biso   1.000  H
  C169     1.0000 0.85410  0.07470  0.38080  Biso   1.000  C
  H131     1.0000 0.84370  0.08910  0.34490  Biso   1.000  H
  C170     1.0000 0.90540  0.05170  0.39410  Biso   1.000  C
  H132     1.0000 0.93070  0.05040  0.36770  Biso   1.000  H
  O53      1.0000 0.72380  0.96325  0.54730  Biso   1.000  O
  O54      1.0000 0.63820  0.95063  0.40770  Biso   1.000  O
  O55      1.0000 0.83120  0.95622  0.50120  Biso   1.000  O
  O56      1.0000 0.70940  0.90924  0.45670  Biso   1.000  O
  O57      1.0000 0.84900  0.92256  0.60900  Biso   1.000  O
  O58      1.0000 0.92040  0.96980  0.63900  Biso   1.000  O
  N17      1.0000 0.89840  0.00880  0.53860  Biso   1.000  N
  N18      1.0000 0.65230  0.00670  0.49250  Biso   1.000  N
  C171     1.0000 0.54510  0.16770  0.27310  Biso   1.000  C
  C172     1.0000 0.57040  0.17660  0.22650  Biso   1.000  C
  H133     1.0000 0.54670  0.18650  0.19120  Biso   1.000  H
  C173     1.0000 0.63080  0.17070  0.23190  Biso   1.000  C
  H134     1.0000 0.64830  0.17660  0.20010  Biso   1.000  H
  C174     1.0000 0.66540  0.15640  0.28350  Biso   1.000  C
  H135     1.0000 0.70650  0.15220  0.28730  Biso   1.000  H
  C175     1.0000 0.52270  0.07200  0.46490  Biso   1.000  C
  C176     1.0000 0.45000  0.14010  0.26240  Biso   1.000  C
  C177     1.0000 0.55280  0.11030  0.47150  Biso   1.000  C
  C178     1.0000 0.49820  0.00760  0.33020  Biso   1.000  C
  C179     1.0000 0.48620  0.04050  0.37370  Biso   1.000  C
  C180     1.0000 0.58940  0.12430  0.42900  Biso   1.000  C
  H136     1.0000 0.61080  0.09970  0.41800  Biso   1.000  H
  H137     1.0000 0.61880  0.14560  0.44760  Biso   1.000  H
  C181     1.0000 0.54650  0.13720  0.51670  Biso   1.000  C
  H138     1.0000 0.56660  0.16360  0.52180  Biso   1.000  H
  C182     1.0000 0.48730  0.06050  0.50230  Biso   1.000  C
  H139     1.0000 0.46690  0.03420  0.49730  Biso   1.000  H
  C183     1.0000 0.51080  0.12540  0.55440  Biso   1.000  C
  H140     1.0000 0.50680  0.14370  0.58510  Biso   1.000  H
  C184     1.0000 0.54980  0.14370  0.37470  Biso   1.000  C
  H141     1.0000 0.51670  0.12390  0.36060  Biso   1.000  H
  H142     1.0000 0.53270  0.17030  0.38600  Biso   1.000  H
  C185     1.0000 0.38590  0.14880  0.26740  Biso   1.000  C
  C186     1.0000 0.57870  0.15350  0.32520  Biso   1.000  C
  C187     1.0000 0.63910  0.14820  0.32920  Biso   1.000  C
  H143     1.0000 0.66290  0.13860  0.36460  Biso   1.000  H
  C188     1.0000 0.48160  0.08750  0.54720  Biso   1.000  C
  H144     1.0000 0.45740  0.07960  0.57290  Biso   1.000  H
  N19      1.0000 0.53010  0.04310  0.41910  Biso   1.000  N
  N20      1.0000 0.48330  0.17430  0.26790  Biso   1.000  N
  O59      1.0000 0.37110  0.18647  0.27220  Biso   1.000  O
  O60      1.0000 0.35210  0.11754  0.26690  Biso   1.000  O
  O61      1.0000 0.46470  0.10208  0.25690  Biso   1.000  O
  O62      1.0000 0.54440  0.98677  0.34180  Biso   1.000  O
  O63      1.0000 0.43860  0.06074  0.36190  Biso   1.000  O
  O64      1.0000 0.45980  0.00455  0.28310  Biso   1.000  O
  S5       1.0000 0.68492  0.83838  0.55838  Biso   1.000  S
  O65      1.0000 0.73990  0.86510  0.58670  Biso   1.000  O
  C189     1.0000 0.68260  0.79440  0.60500  Biso   1.000  C
  H145     1.0000 0.64850  0.77660  0.58880  Biso   1.000  H
  H146     1.0000 0.71880  0.77770  0.60870  Biso   1.000  H
  H147     1.0000 0.67930  0.80480  0.64310  Biso   1.000  H
  C190     1.0000 0.62330  0.86550  0.57390  Biso   1.000  C
  H148     1.0000 0.58720  0.85000  0.55690  Biso   1.000  H
  H149     1.0000 0.62740  0.86740  0.61580  Biso   1.000  H
  H150     1.0000 0.62120  0.89410  0.55740  Biso   1.000  H
  S6       1.0000 0.70010  0.84870  0.61660  Biso   1.000  S
  O66      1.0000 0.73990  0.85970  0.57340  Biso   1.000  O
  C191     1.0000 0.69650  0.79560  0.61680  Biso   1.000  C
  H151     1.0000 0.67200  0.78640  0.64330  Biso   1.000  H
  H152     1.0000 0.67930  0.78540  0.57780  Biso   1.000  H
  H153     1.0000 0.73620  0.78390  0.62950  Biso   1.000  H
  C192     1.0000 0.63010  0.87070  0.57810  Biso   1.000  C
  H154     1.0000 0.60010  0.86600  0.60070  Biso   1.000  H
  H155     1.0000 0.63450  0.90120  0.57240  Biso   1.000  H
  H156     1.0000 0.61800  0.85670  0.54050  Biso   1.000  H
  S7       1.0000 0.71580  0.41080  0.31120  Biso   1.000  S
  O67      1.0000 0.73050  0.38460  0.36460  Biso   1.000  O
  C193     1.0000 0.63850  0.41600  0.28400  Biso   1.000  C
  H157     1.0000 0.63130  0.43350  0.24900  Biso   1.000  H
  H158     1.0000 0.62100  0.38790  0.27480  Biso   1.000  H
  H159     1.0000 0.62060  0.42960  0.31320  Biso   1.000  H
  C194     1.0000 0.72680  0.46310  0.33650  Biso   1.000  C
  H160     1.0000 0.71800  0.48270  0.30370  Biso   1.000  H
  H161     1.0000 0.70070  0.46900  0.36280  Biso   1.000  H
  H162     1.0000 0.76790  0.46670  0.35700  Biso   1.000  H
  S8       1.0000 0.69467  0.39247  0.29949  Biso   1.000  S
  O68      1.0000 0.71400  0.37230  0.35700  Biso   1.000  O
  C195     1.0000 0.61630  0.39320  0.28280  Biso   1.000  C
  H163     1.0000 0.60220  0.40630  0.24490  Biso   1.000  H
  H164     1.0000 0.60150  0.36410  0.28200  Biso   1.000  H
  H165     1.0000 0.60220  0.40950  0.31220  Biso   1.000  H
  C196     1.0000 0.70370  0.44820  0.30610  Biso   1.000  C
  H166     1.0000 0.69090  0.46140  0.26810  Biso   1.000  H
  H167     1.0000 0.67990  0.45910  0.33230  Biso   1.000  H
  H168     1.0000 0.74530  0.45480  0.32170  Biso   1.000  H
  Cu11     1.0000 0.95615  0.48070  0.11107  Biso   1.000  Cu
  Cu12     1.0000 0.01536  0.22844  0.19860  Biso   1.000  Cu
  Cu13     1.0000 0.71192  0.11597  0.95113  Biso   1.000  Cu
  Cu14     1.0000 0.43711  0.27332  0.77616  Biso   1.000  Cu
  Cu15     1.0000 0.59723  0.49539  0.91534  Biso   1.000  Cu
  Mn11     1.0000 0.12365  0.38230  0.24087  Biso   1.000  Mn
  Mn12     1.0000 0.93603  0.08562  0.07544  Biso   1.000  Mn
  Mn13     1.0000 0.47216  0.12392  0.89357  Biso   1.000  Mn
  Mn14     1.0000 0.39649  0.44381  0.76878  Biso   1.000  Mn
  Mn15     1.0000 0.77796  0.59268  0.03460  Biso   1.000  Mn
  C197     1.0000 0.83890  0.24000  0.11410  Biso   1.000  C
  H169     1.0000 0.81530  0.26630  0.10880  Biso   1.000  H
  H170     1.0000 0.87950  0.24710  0.11080  Biso   1.000  H
  C198     1.0000 0.80280  0.18870  0.96240  Biso   1.000  C
  C199     1.0000 0.83070  0.12160  0.99900  Biso   1.000  C
  C200     1.0000 0.80600  0.19900  0.90590  Biso   1.000  C
  H171     1.0000 0.79990  0.17760  0.87710  Biso   1.000  H
  C201     1.0000 0.81270  0.21960  0.00590  Biso   1.000  C
  C202     1.0000 0.81240  0.07660  0.01210  Biso   1.000  C
  C203     1.0000 0.94840  0.15900  0.15310  Biso   1.000  C
  C204     1.0000 0.81180  0.20730  0.06660  Biso   1.000  C
  H172     1.0000 0.77040  0.20220  0.06890  Biso   1.000  H
  H173     1.0000 0.83320  0.18020  0.07530  Biso   1.000  H
  C205     1.0000 0.82400  0.27100  0.93290  Biso   1.000  C
  H174     1.0000 0.82920  0.29970  0.92270  Biso   1.000  H
  C206     1.0000 0.84010  0.22230  0.17100  Biso   1.000  C
  C207     1.0000 0.82290  0.26100  0.98850  Biso   1.000  C
  H175     1.0000 0.82920  0.28290  0.01670  Biso   1.000  H
  C208     1.0000 0.88970  0.19920  0.20270  Biso   1.000  C
  C209     1.0000 0.81770  0.23980  0.89160  Biso   1.000  C
  H176     1.0000 0.82150  0.24630  0.85340  Biso   1.000  H
  C210     1.0000 0.83740  0.18760  0.27900  Biso   1.000  C
  H177     1.0000 0.83560  0.17580  0.31540  Biso   1.000  H
  C211     1.0000 0.79020  0.21020  0.24770  Biso   1.000  C
  H178     1.0000 0.75650  0.21450  0.26360  Biso   1.000  H
  C212     1.0000 0.88840  0.18230  0.25640  Biso   1.000  C
  H179     1.0000 0.92140  0.16730  0.27770  Biso   1.000  H
  C213     1.0000 0.79060  0.22620  0.19560  Biso   1.000  C
  H180     1.0000 0.75670  0.24060  0.17480  Biso   1.000  H
  C214     1.0000 0.00630  0.15640  0.13440  Biso   1.000  C
  O69      1.0000 0.91300  0.12930  0.14120  Biso   1.000  O
  O70      1.0000 0.76010  0.06580  0.98870  Biso   1.000  O
  O71      1.0000 0.85020  0.05390  0.04400  Biso   1.000  O
  O72      1.0000 0.01290  0.12690  0.10090  Biso   1.000  O
  O73      1.0000 0.04500  0.18360  0.15300  Biso   1.000  O
  O74      1.0000 0.88530  0.13060  0.01320  Biso   1.000  O
  N21      1.0000 0.78780  0.14650  0.97590  Biso   1.000  N
  N22      1.0000 0.94260  0.19430  0.18080  Biso   1.000  N
  C215     1.0000 0.42310  0.20350  0.83890  Biso   1.000  C
  C216     1.0000 0.65270  0.19400  0.99650  Biso   1.000  C
  C217     1.0000 0.60260  0.22460  0.80410  Biso   1.000  C
  C218     1.0000 0.64630  0.19560  0.05370  Biso   1.000  C
  H181     1.0000 0.63820  0.17030  0.07230  Biso   1.000  H
  C219     1.0000 0.66470  0.23130  0.96860  Biso   1.000  C
  C220     1.0000 0.54830  0.22200  0.76680  Biso   1.000  C
  C221     1.0000 0.47890  0.19500  0.81650  Biso   1.000  C
  C222     1.0000 0.59430  0.13810  0.95100  Biso   1.000  C
  C223     1.0000 0.59490  0.09430  0.92230  Biso   1.000  C
  C224     1.0000 0.60620  0.23280  0.86770  Biso   1.000  C
  H182     1.0000 0.58910  0.26110  0.87170  Biso   1.000  H
  H183     1.0000 0.58140  0.21170  0.88200  Biso   1.000  H
  C225     1.0000 0.65140  0.23360  0.08360  Biso   1.000  C
  H184     1.0000 0.64600  0.23420  0.12220  Biso   1.000  H
  C226     1.0000 0.65250  0.21840  0.78160  Biso   1.000  C
  H185     1.0000 0.69040  0.22000  0.80650  Biso   1.000  H
  C227     1.0000 0.64770  0.21000  0.72350  Biso   1.000  C
  H186     1.0000 0.68240  0.20620  0.70900  Biso   1.000  H
  C228     1.0000 0.54290  0.21300  0.70820  Biso   1.000  C
  H187     1.0000 0.50480  0.21100  0.68370  Biso   1.000  H
  C229     1.0000 0.67030  0.26930  0.00100  Biso   1.000  C
  H188     1.0000 0.67840  0.29490  0.98310  Biso   1.000  H
  C230     1.0000 0.66820  0.23130  0.90670  Biso   1.000  C
  H189     1.0000 0.69110  0.25620  0.89870  Biso   1.000  H
  H190     1.0000 0.68870  0.20540  0.89810  Biso   1.000  H
  C231     1.0000 0.59210  0.20690  0.68550  Biso   1.000  C
  H191     1.0000 0.58870  0.20090  0.64570  Biso   1.000  H
  C232     1.0000 0.66430  0.27050  0.05820  Biso   1.000  C
  H192     1.0000 0.66910  0.29640  0.07910  Biso   1.000  H
  O75      1.0000 0.50460  0.15974  0.82780  Biso   1.000  O
  O76      1.0000 0.54620  0.15338  0.95480  Biso   1.000  O
  O77      1.0000 0.54660  0.07852  0.90030  Biso   1.000  O
  O78      1.0000 0.41010  0.17640  0.87450  Biso   1.000  O
  O79      1.0000 0.39470  0.23587  0.82190  Biso   1.000  O
  O80      1.0000 0.64500  0.07777  0.92420  Biso   1.000  O
  N23      1.0000 0.49500  0.22700  0.78820  Biso   1.000  N
  N24      1.0000 0.64840  0.15440  0.96780  Biso   1.000  N
  C233     1.0000 0.99760  0.40600  0.04750  Biso   1.000  C
  C234     1.0000 0.04440  0.42210  0.14300  Biso   1.000  C
  C235     1.0000 0.95130  0.37620  0.03220  Biso   1.000  C
  C236     1.0000 0.85300  0.34700  0.16890  Biso   1.000  C
  H193     1.0000 0.83470  0.36430  0.13740  Biso   1.000  H
  C237     1.0000 0.04660  0.45230  0.19300  Biso   1.000  C
  C238     1.0000 0.03810  0.41090  0.01230  Biso   1.000  C
  H194     1.0000 0.06950  0.43060  0.02260  Biso   1.000  H
  C239     1.0000 0.91100  0.36770  0.07310  Biso   1.000  C
  H195     1.0000 0.90220  0.39460  0.09090  Biso   1.000  H
  H196     1.0000 0.87350  0.35560  0.05140  Biso   1.000  H
  C240     1.0000 0.90760  0.32980  0.16890  Biso   1.000  C
  C241     1.0000 0.94000  0.33700  0.11980  Biso   1.000  C
  H197     1.0000 0.94430  0.30940  0.10160  Biso   1.000  H
  H198     1.0000 0.98010  0.34760  0.13690  Biso   1.000  H
  C242     1.0000 0.03270  0.38710  0.96210  Biso   1.000  C
  H199     1.0000 0.06040  0.39060  0.93840  Biso   1.000  H
  C243     1.0000 0.94730  0.35350  0.98240  Biso   1.000  C
  H200     1.0000 0.91610  0.33370  0.97160  Biso   1.000  H
  C244     1.0000 0.93590  0.30420  0.21520  Biso   1.000  C
  C245     1.0000 0.98730  0.35840  0.94680  Biso   1.000  C
  H201     1.0000 0.98330  0.34210  0.91240  Biso   1.000  H
  C246     1.0000 0.82410  0.33970  0.21340  Biso   1.000  C
  H202     1.0000 0.78620  0.35170  0.21160  Biso   1.000  H
  C247     1.0000 0.03800  0.31220  0.22870  Biso   1.000  C
  C248     1.0000 0.09620  0.29270  0.22000  Biso   1.000  C
  C249     1.0000 0.90670  0.29750  0.26110  Biso   1.000  C
  H203     1.0000 0.92510  0.28080  0.29330  Biso   1.000  H
  C250     1.0000 0.84990  0.31550  0.25970  Biso   1.000  C
  H204     1.0000 0.83050  0.31070  0.29050  Biso   1.000  H
  O81      1.0000 0.01060  0.48320  0.18570  Biso   1.000  O
  O82      1.0000 0.04020  0.35080  0.24530  Biso   1.000  O
  O83      1.0000 0.08190  0.44400  0.23990  Biso   1.000  O
  O84      1.0000 0.14030  0.31600  0.22710  Biso   1.000  O
  O85      1.0000 0.09490  0.25460  0.20760  Biso   1.000  O
  O86      1.0000 0.08060  0.39220  0.14850  Biso   1.000  O
  N25      1.0000 0.00250  0.43150  0.09750  Biso   1.000  N
  N26      1.0000 0.99210  0.28680  0.21680  Biso   1.000  N
  C251     1.0000 0.65770  0.46260  0.03830  Biso   1.000  C
  C252     1.0000 0.68560  0.52720  0.00230  Biso   1.000  C
  C253     1.0000 0.88320  0.46790  0.98560  Biso   1.000  C
  C254     1.0000 0.73130  0.42020  0.99580  Biso   1.000  C
  H205     1.0000 0.73970  0.38960  0.99270  Biso   1.000  H
  H206     1.0000 0.71000  0.43020  0.95740  Biso   1.000  H
  C255     1.0000 0.86800  0.52610  0.04110  Biso   1.000  C
  C256     1.0000 0.67760  0.55830  0.95160  Biso   1.000  C
  C257     1.0000 0.83040  0.44450  0.97260  Biso   1.000  C
  C258     1.0000 0.69370  0.42670  0.03930  Biso   1.000  C
  C259     1.0000 0.78970  0.44480  0.01420  Biso   1.000  C
  H207     1.0000 0.81140  0.43300  0.05150  Biso   1.000  H
  H208     1.0000 0.78020  0.47470  0.02130  Biso   1.000  H
  C260     1.0000 0.62530  0.46830  0.08090  Biso   1.000  C
  H209     1.0000 0.60190  0.49310  0.08070  Biso   1.000  H
  C261     1.0000 0.69540  0.39770  0.08460  Biso   1.000  C
  H210     1.0000 0.72070  0.37380  0.08720  Biso   1.000  H
  C262     1.0000 0.87990  0.54670  0.10130  Biso   1.000  C
  C263     1.0000 0.66230  0.40250  0.12480  Biso   1.000  C
  H211     1.0000 0.66330  0.38160  0.15380  Biso   1.000  H
  C264     1.0000 0.92010  0.46970  0.94660  Biso   1.000  C
  H212     1.0000 0.95550  0.48560  0.95580  Biso   1.000  H
  C265     1.0000 0.81740  0.42320  0.92010  Biso   1.000  C
  H213     1.0000 0.78250  0.40660  0.91070  Biso   1.000  H
  C266     1.0000 0.62720  0.43810  0.12340  Biso   1.000  C
  H214     1.0000 0.60430  0.44170  0.15170  Biso   1.000  H
  C267     1.0000 0.85410  0.42530  0.88080  Biso   1.000  C
  H215     1.0000 0.84370  0.41090  0.84490  Biso   1.000  H
  C268     1.0000 0.90540  0.44830  0.89410  Biso   1.000  C
  H216     1.0000 0.93070  0.44960  0.86770  Biso   1.000  H
  O87      1.0000 0.72380  0.53675  0.04730  Biso   1.000  O
  O88      1.0000 0.63820  0.54937  0.90770  Biso   1.000  O
  O89      1.0000 0.83120  0.54378  0.00120  Biso   1.000  O
  O90      1.0000 0.70940  0.59076  0.95670  Biso   1.000  O
  O91      1.0000 0.84900  0.57744  0.10900  Biso   1.000  O
  O92      1.0000 0.92040  0.53020  0.13900  Biso   1.000  O
  N27      1.0000 0.89840  0.49120  0.03860  Biso   1.000  N
  N28      1.0000 0.65230  0.49330  0.99250  Biso   1.000  N
  C269     1.0000 0.54510  0.33230  0.77310  Biso   1.000  C
  C270     1.0000 0.57040  0.32340  0.72650  Biso   1.000  C
  H217     1.0000 0.54670  0.31350  0.69120  Biso   1.000  H
  C271     1.0000 0.63080  0.32930  0.73190  Biso   1.000  C
  H218     1.0000 0.64830  0.32340  0.70010  Biso   1.000  H
  C272     1.0000 0.66540  0.34360  0.78350  Biso   1.000  C
  H219     1.0000 0.70650  0.34780  0.78730  Biso   1.000  H
  C273     1.0000 0.52270  0.42800  0.96490  Biso   1.000  C
  C274     1.0000 0.45000  0.35990  0.76240  Biso   1.000  C
  C275     1.0000 0.55280  0.38970  0.97150  Biso   1.000  C
  C276     1.0000 0.49820  0.49240  0.83020  Biso   1.000  C
  C277     1.0000 0.48620  0.45950  0.87370  Biso   1.000  C
  C278     1.0000 0.58940  0.37570  0.92900  Biso   1.000  C
  H220     1.0000 0.61080  0.40030  0.91800  Biso   1.000  H
  H221     1.0000 0.61880  0.35440  0.94760  Biso   1.000  H
  C279     1.0000 0.54650  0.36280  0.01670  Biso   1.000  C
  H222     1.0000 0.56660  0.33640  0.02180  Biso   1.000  H
  C280     1.0000 0.48730  0.43950  0.00230  Biso   1.000  C
  H223     1.0000 0.46690  0.46580  0.99730  Biso   1.000  H
  C281     1.0000 0.51080  0.37460  0.05440  Biso   1.000  C
  H224     1.0000 0.50680  0.35630  0.08510  Biso   1.000  H
  C282     1.0000 0.54980  0.35630  0.87470  Biso   1.000  C
  H225     1.0000 0.51670  0.37610  0.86060  Biso   1.000  H
  H226     1.0000 0.53270  0.32970  0.88600  Biso   1.000  H
  C283     1.0000 0.38590  0.35120  0.76740  Biso   1.000  C
  C284     1.0000 0.57870  0.34650  0.82520  Biso   1.000  C
  C285     1.0000 0.63910  0.35180  0.82920  Biso   1.000  C
  H227     1.0000 0.66290  0.36140  0.86460  Biso   1.000  H
  C286     1.0000 0.48160  0.41250  0.04720  Biso   1.000  C
  H228     1.0000 0.45740  0.42040  0.07290  Biso   1.000  H
  N29      1.0000 0.53010  0.45690  0.91910  Biso   1.000  N
  N30      1.0000 0.48330  0.32570  0.76790  Biso   1.000  N
  O93      1.0000 0.37110  0.31353  0.77220  Biso   1.000  O
  O94      1.0000 0.35210  0.38246  0.76690  Biso   1.000  O
  O95      1.0000 0.46470  0.39792  0.75690  Biso   1.000  O
  O96      1.0000 0.54440  0.51323  0.84180  Biso   1.000  O
  O97      1.0000 0.43860  0.43926  0.86190  Biso   1.000  O
  O98      1.0000 0.45980  0.49545  0.78310  Biso   1.000  O
  S9       1.0000 0.68492  0.66162  0.05838  Biso   1.000  S
  O99      1.0000 0.73990  0.63490  0.08670  Biso   1.000  O
  C287     1.0000 0.68260  0.70560  0.10500  Biso   1.000  C
  H229     1.0000 0.64850  0.72340  0.08880  Biso   1.000  H
  H230     1.0000 0.71880  0.72230  0.10870  Biso   1.000  H
  H231     1.0000 0.67930  0.69520  0.14310  Biso   1.000  H
  C288     1.0000 0.62330  0.63450  0.07390  Biso   1.000  C
  H232     1.0000 0.58720  0.65000  0.05690  Biso   1.000  H
  H233     1.0000 0.62740  0.63260  0.11580  Biso   1.000  H
  H234     1.0000 0.62120  0.60590  0.05740  Biso   1.000  H
  S10      1.0000 0.70010  0.65130  0.11660  Biso   1.000  S
  O100     1.0000 0.73990  0.64030  0.07340  Biso   1.000  O
  C289     1.0000 0.69650  0.70440  0.11680  Biso   1.000  C
  H235     1.0000 0.67200  0.71360  0.14330  Biso   1.000  H
  H236     1.0000 0.67930  0.71460  0.07780  Biso   1.000  H
  H237     1.0000 0.73620  0.71610  0.12950  Biso   1.000  H
  C290     1.0000 0.63010  0.62930  0.07810  Biso   1.000  C
  H238     1.0000 0.60010  0.63400  0.10070  Biso   1.000  H
  H239     1.0000 0.63450  0.59880  0.07240  Biso   1.000  H
  H240     1.0000 0.61800  0.64330  0.04050  Biso   1.000  H
  S11      1.0000 0.71580  0.08920  0.81120  Biso   1.000  S
  O101     1.0000 0.73050  0.11540  0.86460  Biso   1.000  O
  C291     1.0000 0.63850  0.08400  0.78400  Biso   1.000  C
  H241     1.0000 0.63130  0.06650  0.74900  Biso   1.000  H
  H242     1.0000 0.62100  0.11210  0.77480  Biso   1.000  H
  H243     1.0000 0.62060  0.07040  0.81320  Biso   1.000  H
  C292     1.0000 0.72680  0.03690  0.83650  Biso   1.000  C
  H244     1.0000 0.71800  0.01730  0.80370  Biso   1.000  H
  H245     1.0000 0.70070  0.03100  0.86280  Biso   1.000  H
  H246     1.0000 0.76790  0.03330  0.85700  Biso   1.000  H
  S12      1.0000 0.69467  0.10753  0.79949  Biso   1.000  S
  O102     1.0000 0.71400  0.12770  0.85700  Biso   1.000  O
  C293     1.0000 0.61630  0.10680  0.78280  Biso   1.000  C
  H247     1.0000 0.60220  0.09370  0.74490  Biso   1.000  H
  H248     1.0000 0.60150  0.13590  0.78200  Biso   1.000  H
  H249     1.0000 0.60220  0.09050  0.81220  Biso   1.000  H
  C294     1.0000 0.70370  0.05180  0.80610  Biso   1.000  C
  H250     1.0000 0.69090  0.03860  0.76810  Biso   1.000  H
  H251     1.0000 0.67990  0.04090  0.83230  Biso   1.000  H
  H252     1.0000 0.74530  0.04520  0.82170  Biso   1.000  H
  Cu16     1.0000 0.04385  0.98070  0.38893  Biso   1.000  Cu
  Cu17     1.0000 0.98464  0.72844  0.30140  Biso   1.000  Cu
  Cu18     1.0000 0.28808  0.61597  0.54887  Biso   1.000  Cu
  Cu19     1.0000 0.56289  0.77332  0.72384  Biso   1.000  Cu
  Cu20     1.0000 0.40277  0.99539  0.58466  Biso   1.000  Cu
  Mn16     1.0000 0.87635  0.88230  0.25913  Biso   1.000  Mn
  Mn17     1.0000 0.06397  0.58562  0.42456  Biso   1.000  Mn
  Mn18     1.0000 0.52784  0.62392  0.60643  Biso   1.000  Mn
  Mn19     1.0000 0.60351  0.94381  0.73122  Biso   1.000  Mn
  Mn20     1.0000 0.22204  0.09268  0.46540  Biso   1.000  Mn
  C295     1.0000 0.16110  0.74000  0.38590  Biso   1.000  C
  H253     1.0000 0.18470  0.76630  0.39120  Biso   1.000  H
  H254     1.0000 0.12050  0.74710  0.38920  Biso   1.000  H
  C296     1.0000 0.19720  0.68870  0.53760  Biso   1.000  C
  C297     1.0000 0.16930  0.62160  0.50100  Biso   1.000  C
  C298     1.0000 0.19400  0.69900  0.59410  Biso   1.000  C
  H255     1.0000 0.20010  0.67760  0.62290  Biso   1.000  H
  C299     1.0000 0.18730  0.71960  0.49410  Biso   1.000  C
  C300     1.0000 0.18760  0.57660  0.48790  Biso   1.000  C
  C301     1.0000 0.05160  0.65900  0.34690  Biso   1.000  C
  C302     1.0000 0.18820  0.70730  0.43340  Biso   1.000  C
  H256     1.0000 0.22960  0.70220  0.43110  Biso   1.000  H
  H257     1.0000 0.16680  0.68020  0.42470  Biso   1.000  H
  C303     1.0000 0.17600  0.77100  0.56710  Biso   1.000  C
  H258     1.0000 0.17080  0.79970  0.57730  Biso   1.000  H
  C304     1.0000 0.15990  0.72230  0.32900  Biso   1.000  C
  C305     1.0000 0.17710  0.76100  0.51150  Biso   1.000  C
  H259     1.0000 0.17080  0.78290  0.48330  Biso   1.000  H
  C306     1.0000 0.11030  0.69920  0.29730  Biso   1.000  C
  C307     1.0000 0.18230  0.73980  0.60840  Biso   1.000  C
  H260     1.0000 0.17850  0.74630  0.64660  Biso   1.000  H
  C308     1.0000 0.16260  0.68760  0.22100  Biso   1.000  C
  H261     1.0000 0.16440  0.67580  0.18460  Biso   1.000  H
  C309     1.0000 0.20980  0.71020  0.25230  Biso   1.000  C
  H262     1.0000 0.24350  0.71450  0.23640  Biso   1.000  H
  C310     1.0000 0.11160  0.68230  0.24360  Biso   1.000  C
  H263     1.0000 0.07860  0.66730  0.22230  Biso   1.000  H
  C311     1.0000 0.20940  0.72620  0.30440  Biso   1.000  C
  H264     1.0000 0.24330  0.74060  0.32520  Biso   1.000  H
  C312     1.0000 0.99370  0.65640  0.36560  Biso   1.000  C
  O103     1.0000 0.08700  0.62930  0.35880  Biso   1.000  O
  O104     1.0000 0.23990  0.56580  0.51130  Biso   1.000  O
  O105     1.0000 0.14980  0.55390  0.45600  Biso   1.000  O
  O106     1.0000 0.98710  0.62690  0.39910  Biso   1.000  O
  O107     1.0000 0.95500  0.68360  0.34700  Biso   1.000  O
  O108     1.0000 0.11470  0.63060  0.48680  Biso   1.000  O
  N31      1.0000 0.21220  0.64650  0.52410  Biso   1.000  N
  N32      1.0000 0.05740  0.69430  0.31920  Biso   1.000  N
  C313     1.0000 0.57690  0.70350  0.66110  Biso   1.000  C
  C314     1.0000 0.34730  0.69400  0.50350  Biso   1.000  C
  C315     1.0000 0.39740  0.72460  0.69590  Biso   1.000  C
  C316     1.0000 0.35370  0.69560  0.44630  Biso   1.000  C
  H265     1.0000 0.36180  0.67030  0.42770  Biso   1.000  H
  C317     1.0000 0.33530  0.73130  0.53140  Biso   1.000  C
  C318     1.0000 0.45170  0.72200  0.73320  Biso   1.000  C
  C319     1.0000 0.52110  0.69500  0.68350  Biso   1.000  C
  C320     1.0000 0.40570  0.63810  0.54900  Biso   1.000  C
  C321     1.0000 0.40510  0.59430  0.57770  Biso   1.000  C
  C322     1.0000 0.39380  0.73280  0.63230  Biso   1.000  C
  H266     1.0000 0.41090  0.76110  0.62830  Biso   1.000  H
  H267     1.0000 0.41860  0.71170  0.61800  Biso   1.000  H
  C323     1.0000 0.34860  0.73360  0.41640  Biso   1.000  C
  H268     1.0000 0.35400  0.73420  0.37780  Biso   1.000  H
  C324     1.0000 0.34750  0.71840  0.71840  Biso   1.000  C
  H269     1.0000 0.30960  0.72000  0.69350  Biso   1.000  H
  C325     1.0000 0.35230  0.71000  0.77650  Biso   1.000  C
  H270     1.0000 0.31760  0.70620  0.79100  Biso   1.000  H
  C326     1.0000 0.45710  0.71300  0.79180  Biso   1.000  C
  H271     1.0000 0.49520  0.71100  0.81630  Biso   1.000  H
  C327     1.0000 0.32970  0.76930  0.49900  Biso   1.000  C
  H272     1.0000 0.32160  0.79490  0.51690  Biso   1.000  H
  C328     1.0000 0.33180  0.73130  0.59330  Biso   1.000  C
  H273     1.0000 0.30890  0.75620  0.60130  Biso   1.000  H
  H274     1.0000 0.31130  0.70540  0.60190  Biso   1.000  H
  C329     1.0000 0.40790  0.70690  0.81450  Biso   1.000  C
  H275     1.0000 0.41130  0.70090  0.85430  Biso   1.000  H
  C330     1.0000 0.33570  0.77050  0.44180  Biso   1.000  C
  H276     1.0000 0.33090  0.79640  0.42090  Biso   1.000  H
  O109     1.0000 0.49540  0.65974  0.67220  Biso   1.000  O
  O110     1.0000 0.45380  0.65338  0.54520  Biso   1.000  O
  O111     1.0000 0.45340  0.57852  0.59970  Biso   1.000  O
  O112     1.0000 0.58990  0.67640  0.62550  Biso   1.000  O
  O113     1.0000 0.60530  0.73587  0.67810  Biso   1.000  O
  O114     1.0000 0.35500  0.57777  0.57580  Biso   1.000  O
  N33      1.0000 0.50500  0.72700  0.71180  Biso   1.000  N
  N34      1.0000 0.35160  0.65440  0.53220  Biso   1.000  N
  C331     1.0000 0.00240  0.90600  0.45250  Biso   1.000  C
  C332     1.0000 0.95560  0.92210  0.35700  Biso   1.000  C
  C333     1.0000 0.04870  0.87620  0.46780  Biso   1.000  C
  C334     1.0000 0.14700  0.84700  0.33110  Biso   1.000  C
  H277     1.0000 0.16530  0.86430  0.36260  Biso   1.000  H
  C335     1.0000 0.95340  0.95230  0.30700  Biso   1.000  C
  C336     1.0000 0.96190  0.91090  0.48770  Biso   1.000  C
  H278     1.0000 0.93050  0.93060  0.47740  Biso   1.000  H
  C337     1.0000 0.08900  0.86770  0.42690  Biso   1.000  C
  H279     1.0000 0.09780  0.89460  0.40910  Biso   1.000  H
  H280     1.0000 0.12650  0.85560  0.44860  Biso   1.000  H
  C338     1.0000 0.09240  0.82980  0.33110  Biso   1.000  C
  C339     1.0000 0.06000  0.83700  0.38020  Biso   1.000  C
  H281     1.0000 0.05570  0.80940  0.39840  Biso   1.000  H
  H282     1.0000 0.01990  0.84760  0.36310  Biso   1.000  H
  C340     1.0000 0.96730  0.88710  0.53790  Biso   1.000  C
  H283     1.0000 0.93960  0.89060  0.56160  Biso   1.000  H
  C341     1.0000 0.05270  0.85350  0.51760  Biso   1.000  C
  H284     1.0000 0.08390  0.83370  0.52840  Biso   1.000  H
  C342     1.0000 0.06410  0.80420  0.28480  Biso   1.000  C
  C343     1.0000 0.01270  0.85840  0.55320  Biso   1.000  C
  H285     1.0000 0.01670  0.84210  0.58760  Biso   1.000  H
  C344     1.0000 0.17590  0.83970  0.28660  Biso   1.000  C
  H286     1.0000 0.21380  0.85170  0.28840  Biso   1.000  H
  C345     1.0000 0.96200  0.81220  0.27130  Biso   1.000  C
  C346     1.0000 0.90380  0.79270  0.28000  Biso   1.000  C
  C347     1.0000 0.09330  0.79750  0.23890  Biso   1.000  C
  H287     1.0000 0.07490  0.78080  0.20670  Biso   1.000  H
  C348     1.0000 0.15010  0.81550  0.24030  Biso   1.000  C
  H288     1.0000 0.16950  0.81070  0.20950  Biso   1.000  H
  O115     1.0000 0.98940  0.98320  0.31430  Biso   1.000  O
  O116     1.0000 0.95980  0.85080  0.25470  Biso   1.000  O
  O117     1.0000 0.91810  0.94400  0.26010  Biso   1.000  O
  O118     1.0000 0.85970  0.81600  0.27290  Biso   1.000  O
  O119     1.0000 0.90510  0.75460  0.29240  Biso   1.000  O
  O120     1.0000 0.91940  0.89220  0.35150  Biso   1.000  O
  N35      1.0000 0.99750  0.93150  0.40250  Biso   1.000  N
  N36      1.0000 0.00790  0.78680  0.28320  Biso   1.000  N
  C349     1.0000 0.34230  0.96260  0.46170  Biso   1.000  C
  C350     1.0000 0.31440  0.02720  0.49770  Biso   1.000  C
  C351     1.0000 0.11680  0.96790  0.51440  Biso   1.000  C
  C352     1.0000 0.26870  0.92020  0.50420  Biso   1.000  C
  H289     1.0000 0.26030  0.88960  0.50730  Biso   1.000  H
  H290     1.0000 0.29000  0.93020  0.54260  Biso   1.000  H
  C353     1.0000 0.13200  0.02610  0.45890  Biso   1.000  C
  C354     1.0000 0.32240  0.05830  0.54840  Biso   1.000  C
  C355     1.0000 0.16960  0.94450  0.52740  Biso   1.000  C
  C356     1.0000 0.30630  0.92670  0.46070  Biso   1.000  C
  C357     1.0000 0.21030  0.94480  0.48580  Biso   1.000  C
  H291     1.0000 0.18860  0.93300  0.44850  Biso   1.000  H
  H292     1.0000 0.21980  0.97470  0.47870  Biso   1.000  H
  C358     1.0000 0.37470  0.96830  0.41910  Biso   1.000  C
  H293     1.0000 0.39810  0.99310  0.41930  Biso   1.000  H
  C359     1.0000 0.30460  0.89770  0.41540  Biso   1.000  C
  H294     1.0000 0.27930  0.87380  0.41280  Biso   1.000  H
  C360     1.0000 0.12010  0.04670  0.39870  Biso   1.000  C
  C361     1.0000 0.33770  0.90250  0.37520  Biso   1.000  C
  H295     1.0000 0.33670  0.88160  0.34620  Biso   1.000  H
  C362     1.0000 0.07990  0.96970  0.55340  Biso   1.000  C
  H296     1.0000 0.04450  0.98560  0.54420  Biso   1.000  H
  C363     1.0000 0.18260  0.92320  0.57990  Biso   1.000  C
  H297     1.0000 0.21750  0.90660  0.58930  Biso   1.000  H
  C364     1.0000 0.37280  0.93810  0.37660  Biso   1.000  C
  H298     1.0000 0.39570  0.94170  0.34830  Biso   1.000  H
  C365     1.0000 0.14590  0.92530  0.61920  Biso   1.000  C
  H299     1.0000 0.15630  0.91090  0.65510  Biso   1.000  H
  C366     1.0000 0.09460  0.94830  0.60590  Biso   1.000  C
  H300     1.0000 0.06930  0.94960  0.63230  Biso   1.000  H
  O121     1.0000 0.27620  0.03675  0.45270  Biso   1.000  O
  O122     1.0000 0.36180  0.04937  0.59230  Biso   1.000  O
  O123     1.0000 0.16880  0.04378  0.49880  Biso   1.000  O
  O124     1.0000 0.29060  0.09076  0.54330  Biso   1.000  O
  O125     1.0000 0.15100  0.07744  0.39100  Biso   1.000  O
  O126     1.0000 0.07960  0.03020  0.36100  Biso   1.000  O
  N37      1.0000 0.10160  0.99120  0.46140  Biso   1.000  N
  N38      1.0000 0.34770  0.99330  0.50750  Biso   1.000  N
  C367     1.0000 0.45490  0.83230  0.72690  Biso   1.000  C
  C368     1.0000 0.42960  0.82340  0.77350  Biso   1.000  C
  H301     1.0000 0.45330  0.81350  0.80880  Biso   1.000  H
  C369     1.0000 0.36920  0.82930  0.76810  Biso   1.000  C
  H302     1.0000 0.35170  0.82340  0.79990  Biso   1.000  H
  C370     1.0000 0.33460  0.84360  0.71650  Biso   1.000  C
  H303     1.0000 0.29350  0.84780  0.71270  Biso   1.000  H
  C371     1.0000 0.47730  0.92800  0.53510  Biso   1.000  C
  C372     1.0000 0.55000  0.85990  0.73760  Biso   1.000  C
  C373     1.0000 0.44720  0.88970  0.52850  Biso   1.000  C
  C374     1.0000 0.50180  0.99240  0.66980  Biso   1.000  C
  C375     1.0000 0.51380  0.95950  0.62630  Biso   1.000  C
  C376     1.0000 0.41060  0.87570  0.57100  Biso   1.000  C
  H304     1.0000 0.38920  0.90030  0.58200  Biso   1.000  H
  H305     1.0000 0.38120  0.85440  0.55240  Biso   1.000  H
  C377     1.0000 0.45350  0.86280  0.48330  Biso   1.000  C
  H306     1.0000 0.43340  0.83640  0.47820  Biso   1.000  H
  C378     1.0000 0.51270  0.93950  0.49770  Biso   1.000  C
  H307     1.0000 0.53310  0.96580  0.50270  Biso   1.000  H
  C379     1.0000 0.48920  0.87460  0.44560  Biso   1.000  C
  H308     1.0000 0.49320  0.85630  0.41490  Biso   1.000  H
  C380     1.0000 0.45020  0.85630  0.62530  Biso   1.000  C
  H309     1.0000 0.48330  0.87610  0.63940  Biso   1.000  H
  H310     1.0000 0.46730  0.82970  0.61400  Biso   1.000  H
  C381     1.0000 0.61410  0.85120  0.73260  Biso   1.000  C
  C382     1.0000 0.42130  0.84650  0.67480  Biso   1.000  C
  C383     1.0000 0.36090  0.85180  0.67080  Biso   1.000  C
  H311     1.0000 0.33710  0.86140  0.63540  Biso   1.000  H
  C384     1.0000 0.51840  0.91250  0.45280  Biso   1.000  C
  H312     1.0000 0.54260  0.92040  0.42710  Biso   1.000  H
  N39      1.0000 0.46990  0.95690  0.58090  Biso   1.000  N
  N40      1.0000 0.51670  0.82570  0.73210  Biso   1.000  N
  O127     1.0000 0.62890  0.81353  0.72780  Biso   1.000  O
  O128     1.0000 0.64790  0.88246  0.73310  Biso   1.000  O
  O129     1.0000 0.53530  0.89792  0.74310  Biso   1.000  O
  O130     1.0000 0.45560  0.01323  0.65820  Biso   1.000  O
  O131     1.0000 0.56140  0.93926  0.63810  Biso   1.000  O
  O132     1.0000 0.54020  0.99545  0.71690  Biso   1.000  O
  S13      1.0000 0.31508  0.16162  0.44162  Biso   1.000  S
  O133     1.0000 0.26010  0.13490  0.41330  Biso   1.000  O
  C385     1.0000 0.31740  0.20560  0.39500  Biso   1.000  C
  H313     1.0000 0.35150  0.22340  0.41120  Biso   1.000  H
  H314     1.0000 0.28120  0.22230  0.39130  Biso   1.000  H
  H315     1.0000 0.32070  0.19520  0.35690  Biso   1.000  H
  C386     1.0000 0.37670  0.13450  0.42610  Biso   1.000  C
  H316     1.0000 0.41280  0.15000  0.44310  Biso   1.000  H
  H317     1.0000 0.37260  0.13260  0.38420  Biso   1.000  H
  H318     1.0000 0.37880  0.10590  0.44260  Biso   1.000  H
  S14      1.0000 0.29990  0.15130  0.38340  Biso   1.000  S
  O134     1.0000 0.26010  0.14030  0.42660  Biso   1.000  O
  C387     1.0000 0.30350  0.20440  0.38320  Biso   1.000  C
  H319     1.0000 0.32800  0.21360  0.35670  Biso   1.000  H
  H320     1.0000 0.32070  0.21460  0.42220  Biso   1.000  H
  H321     1.0000 0.26380  0.21610  0.37050  Biso   1.000  H
  C388     1.0000 0.36990  0.12930  0.42190  Biso   1.000  C
  H322     1.0000 0.39990  0.13400  0.39930  Biso   1.000  H
  H323     1.0000 0.36550  0.09880  0.42760  Biso   1.000  H
  H324     1.0000 0.38200  0.14330  0.45950  Biso   1.000  H
  S15      1.0000 0.28420  0.58920  0.68880  Biso   1.000  S
  O135     1.0000 0.26950  0.61540  0.63540  Biso   1.000  O
  C389     1.0000 0.36150  0.58400  0.71600  Biso   1.000  C
  H325     1.0000 0.36870  0.56650  0.75100  Biso   1.000  H
  H326     1.0000 0.37900  0.61210  0.72520  Biso   1.000  H
  H327     1.0000 0.37940  0.57040  0.68680  Biso   1.000  H
  C390     1.0000 0.27320  0.53690  0.66350  Biso   1.000  C
  H328     1.0000 0.28200  0.51730  0.69630  Biso   1.000  H
  H329     1.0000 0.29930  0.53100  0.63720  Biso   1.000  H
  H330     1.0000 0.23210  0.53330  0.64300  Biso   1.000  H
  S16      1.0000 0.30533  0.60753  0.70051  Biso   1.000  S
  O136     1.0000 0.28600  0.62770  0.64300  Biso   1.000  O
  C391     1.0000 0.38370  0.60680  0.71720  Biso   1.000  C
  H331     1.0000 0.39780  0.59370  0.75510  Biso   1.000  H
  H332     1.0000 0.39850  0.63590  0.71800  Biso   1.000  H
  H333     1.0000 0.39780  0.59050  0.68780  Biso   1.000  H
  C392     1.0000 0.29630  0.55180  0.69390  Biso   1.000  C
  H334     1.0000 0.30910  0.53860  0.73190  Biso   1.000  H
  H335     1.0000 0.32010  0.54090  0.66770  Biso   1.000  H
  H336     1.0000 0.25470  0.54520  0.67830  Biso   1.000  H
