data_image0
_cell_length_a       26.9149
_cell_length_b       31.0829
_cell_length_c       21.2174
_cell_angle_alpha    90
_cell_angle_beta     96.4956
_cell_angle_gamma    90

_symmetry_space_group_name_H-M    "P 1"
_symmetry_int_tables_number       1

loop_
  _symmetry_equiv_pos_as_xyz
  'x, y, z'

loop_
  _atom_site_label
  _atom_site_occupancy
  _atom_site_fract_x
  _atom_site_fract_y
  _atom_site_fract_z
  _atom_site_thermal_displace_type
  _atom_site_B_iso_or_equiv
  _atom_site_type_symbol
  Mn1      1.0000 0.51542  0.38906  0.94108  Biso   1.000  Mn
  As1      1.0000 0.45841  0.34430  0.04456  Biso   1.000  As
  As2      1.0000 0.45284  0.29364  0.57006  Biso   1.000  As
  As3      1.0000 0.40577  0.39032  0.66491  Biso   1.000  As
  As4      1.0000 0.25751  0.36217  0.67271  Biso   1.000  As
  As5      1.0000 0.30936  0.29213  0.88599  Biso   1.000  As
  C1       1.0000 0.39676  0.35820  0.07340  Biso   1.000  C
  C2       1.0000 0.37940  0.33260  0.11990  Biso   1.000  C
  H1       1.0000 0.39830  0.30870  0.13710  Biso   1.000  H
  C3       1.0000 0.33360  0.34270  0.14080  Biso   1.000  C
  H2       1.0000 0.32100  0.32560  0.17260  Biso   1.000  H
  C4       1.0000 0.30620  0.37770  0.11550  Biso   1.000  C
  H3       1.0000 0.27470  0.38400  0.12940  Biso   1.000  H
  C5       1.0000 0.32430  0.40350  0.06990  Biso   1.000  C
  H4       1.0000 0.30580  0.42790  0.05370  Biso   1.000  H
  C6       1.0000 0.36980  0.39360  0.04820  Biso   1.000  C
  H5       1.0000 0.38230  0.41080  0.01650  Biso   1.000  H
  C7       1.0000 0.43360  0.44360  0.88140  Biso   1.000  C
  C8       1.0000 0.41290  0.39920  0.87110  Biso   1.000  C
  C9       1.0000 0.41000  0.48130  0.86030  Biso   1.000  C
  H6       1.0000 0.37740  0.48070  0.83780  Biso   1.000  H
  C10      1.0000 0.43530  0.52020  0.87280  Biso   1.000  C
  H7       1.0000 0.41960  0.54640  0.85880  Biso   1.000  H
  C11      1.0000 0.48350  0.52090  0.90580  Biso   1.000  C
  H8       1.0000 0.50100  0.54720  0.91460  Biso   1.000  H
  C12      1.0000 0.50440  0.48190  0.92480  Biso   1.000  C
  C13      1.0000 0.55700  0.47610  0.95840  Biso   1.000  C
  C14      1.0000 0.44067  0.24553  0.51500  Biso   1.000  C
  C15      1.0000 0.43010  0.25129  0.44990  Biso   1.000  C
  H9       1.0000 0.43210  0.27900  0.43150  Biso   1.000  H
  C16      1.0000 0.41660  0.21560  0.41230  Biso   1.000  C
  H10      1.0000 0.40920  0.21880  0.36770  Biso   1.000  H
  C17      1.0000 0.41380  0.17526  0.43960  Biso   1.000  C
  H11      1.0000 0.40380  0.15120  0.41360  Biso   1.000  H
  C18      1.0000 0.42530  0.16970  0.50450  Biso   1.000  C
  H12      1.0000 0.42430  0.14180  0.52270  Biso   1.000  H
  C19      1.0000 0.43850  0.20513  0.54280  Biso   1.000  C
  H13      1.0000 0.44590  0.20180  0.58740  Biso   1.000  H
  C20      1.0000 0.39572  0.44970  0.68180  Biso   1.000  C
  C21      1.0000 0.43810  0.47460  0.69850  Biso   1.000  C
  H14      1.0000 0.47040  0.46190  0.70310  Biso   1.000  H
  C22      1.0000 0.43215  0.51851  0.70810  Biso   1.000  C
  H15      1.0000 0.46060  0.53610  0.71950  Biso   1.000  H
  C23      1.0000 0.38480  0.53670  0.70120  Biso   1.000  C
  H16      1.0000 0.38110  0.56660  0.70880  Biso   1.000  H
  C24      1.0000 0.34281  0.51174  0.68330  Biso   1.000  C
  H17      1.0000 0.31060  0.52460  0.67750  Biso   1.000  H
  C25      1.0000 0.34811  0.46775  0.67400  Biso   1.000  C
  H18      1.0000 0.31960  0.45030  0.66260  Biso   1.000  H
  C26      1.0000 0.31020  0.24070  0.52580  Biso   1.000  C
  C27      1.0000 0.31700  0.27630  0.47990  Biso   1.000  C
  C28      1.0000 0.30020  0.19820  0.51190  Biso   1.000  C
  H19      1.0000 0.29580  0.18870  0.46910  Biso   1.000  H
  C29      1.0000 0.29650  0.16950  0.56030  Biso   1.000  C
  H20      1.0000 0.28960  0.14010  0.55100  Biso   1.000  H
  C30      1.0000 0.30290  0.18330  0.62270  Biso   1.000  C
  H21      1.0000 0.30020  0.16380  0.65670  Biso   1.000  H
  C31      1.0000 0.31340  0.22690  0.63430  Biso   1.000  C
  C32      1.0000 0.32150  0.24730  0.69970  Biso   1.000  C
  C33      1.0000 0.20910  0.33370  0.71630  Biso   1.000  C
  C34      1.0000 0.18600  0.35660  0.76130  Biso   1.000  C
  H22      1.0000 0.19300  0.38630  0.76840  Biso   1.000  H
  C35      1.0000 0.15250  0.33510  0.79560  Biso   1.000  C
  H23      1.0000 0.13640  0.35020  0.82650  Biso   1.000  H
  C36      1.0000 0.14260  0.29180  0.78490  Biso   1.000  C
  H24      1.0000 0.12020  0.27730  0.80910  Biso   1.000  H
  C37      1.0000 0.16500  0.26940  0.73900  Biso   1.000  C
  H25      1.0000 0.15730  0.23990  0.73120  Biso   1.000  H
  C38      1.0000 0.19890  0.29030  0.70470  Biso   1.000  C
  H26      1.0000 0.21500  0.27520  0.67380  Biso   1.000  H
  C39      1.0000 0.25340  0.30010  0.93090  Biso   1.000  C
  C40      1.0000 0.24830  0.33910  0.96150  Biso   1.000  C
  H27      1.0000 0.27280  0.36100  0.96070  Biso   1.000  H
  C41      1.0000 0.20640  0.34540  0.99330  Biso   1.000  C
  H28      1.0000 0.20220  0.37190  0.01450  Biso   1.000  H
  C42      1.0000 0.17080  0.31330  0.99420  Biso   1.000  C
  H29      1.0000 0.14270  0.31770  0.01680  Biso   1.000  H
  C43      1.0000 0.17570  0.27470  0.96250  Biso   1.000  C
  H30      1.0000 0.15070  0.25320  0.96230  Biso   1.000  H
  C44      1.0000 0.21760  0.26780  0.93100  Biso   1.000  C
  H31      1.0000 0.22170  0.24140  0.90970  Biso   1.000  H
  Mn2      1.0000 0.34016  0.31520  0.60473  Biso   1.000  Mn
  Mn3      1.0000 0.35350  0.33986  0.77462  Biso   1.000  Mn
  Mn4      1.0000 0.42725  0.29806  0.90736  Biso   1.000  Mn
  N1       1.0000 0.47984  0.44474  0.91430  Biso   1.000  N
  N2       1.0000 0.31680  0.25410  0.58740  Biso   1.000  N
  O1       1.0000 0.45503  0.30337  0.99395  Biso   1.000  O
  O2       1.0000 0.48241  0.38936  0.01840  Biso   1.000  O
  O3       1.0000 0.43999  0.36890  0.89538  Biso   1.000  O
  O4       1.0000 0.37149  0.39556  0.83890  Biso   1.000  O
  O5       1.0000 0.57003  0.43776  0.97100  Biso   1.000  O
  O6       1.0000 0.58240  0.50913  0.97190  Biso   1.000  O
  O7       1.0000 0.44855  0.33933  0.52839  Biso   1.000  O
  O8       1.0000 0.50685  0.29047  0.61867  Biso   1.000  O
  O9       1.0000 0.40786  0.29297  0.61935  Biso   1.000  O
  O10      1.0000 0.46352  0.38453  0.64240  Biso   1.000  O
  O11      1.0000 0.36071  0.37338  0.60802  Biso   1.000  O
  O12      1.0000 0.40747  0.35877  0.72971  Biso   1.000  O
  O13      1.0000 0.33241  0.31177  0.50300  Biso   1.000  O
  O14      1.0000 0.30640  0.26680  0.42200  Biso   1.000  O
  O15      1.0000 0.33349  0.28621  0.70084  Biso   1.000  O
  O16      1.0000 0.31470  0.22377  0.74550  Biso   1.000  O
  O17      1.0000 0.27214  0.33270  0.61090  Biso   1.000  O
  O18      1.0000 0.30762  0.37611  0.72240  Biso   1.000  O
  O19      1.0000 0.30095  0.32319  0.82150  Biso   1.000  O
  O20      1.0000 0.36188  0.30442  0.93320  Biso   1.000  O
  O21      1.0000 0.39830  0.29810  0.81959  Biso   1.000  O
  Mn5      1.0000 0.48458  0.38906  0.55892  Biso   1.000  Mn
  As6      1.0000 0.54159  0.34430  0.45544  Biso   1.000  As
  As7      1.0000 0.54716  0.29364  0.92994  Biso   1.000  As
  As8      1.0000 0.59423  0.39032  0.83509  Biso   1.000  As
  As9      1.0000 0.74249  0.36217  0.82729  Biso   1.000  As
  As10     1.0000 0.69064  0.29213  0.61401  Biso   1.000  As
  C45      1.0000 0.60324  0.35820  0.42660  Biso   1.000  C
  C46      1.0000 0.62060  0.33260  0.38010  Biso   1.000  C
  H32      1.0000 0.60170  0.30870  0.36290  Biso   1.000  H
  C47      1.0000 0.66640  0.34270  0.35920  Biso   1.000  C
  H33      1.0000 0.67900  0.32560  0.32740  Biso   1.000  H
  C48      1.0000 0.69380  0.37770  0.38450  Biso   1.000  C
  H34      1.0000 0.72530  0.38400  0.37060  Biso   1.000  H
  C49      1.0000 0.67570  0.40350  0.43010  Biso   1.000  C
  H35      1.0000 0.69420  0.42790  0.44630  Biso   1.000  H
  C50      1.0000 0.63020  0.39360  0.45180  Biso   1.000  C
  H36      1.0000 0.61770  0.41080  0.48350  Biso   1.000  H
  C51      1.0000 0.56640  0.44360  0.61860  Biso   1.000  C
  C52      1.0000 0.58710  0.39920  0.62890  Biso   1.000  C
  C53      1.0000 0.59000  0.48130  0.63970  Biso   1.000  C
  H37      1.0000 0.62260  0.48070  0.66220  Biso   1.000  H
  C54      1.0000 0.56470  0.52020  0.62720  Biso   1.000  C
  H38      1.0000 0.58040  0.54640  0.64120  Biso   1.000  H
  C55      1.0000 0.51650  0.52090  0.59420  Biso   1.000  C
  H39      1.0000 0.49900  0.54720  0.58540  Biso   1.000  H
  C56      1.0000 0.49560  0.48190  0.57520  Biso   1.000  C
  C57      1.0000 0.44300  0.47610  0.54160  Biso   1.000  C
  C58      1.0000 0.55933  0.24553  0.98500  Biso   1.000  C
  C59      1.0000 0.56990  0.25129  0.05010  Biso   1.000  C
  H40      1.0000 0.56790  0.27900  0.06850  Biso   1.000  H
  C60      1.0000 0.58340  0.21560  0.08770  Biso   1.000  C
  H41      1.0000 0.59080  0.21880  0.13230  Biso   1.000  H
  C61      1.0000 0.58620  0.17526  0.06040  Biso   1.000  C
  H42      1.0000 0.59620  0.15120  0.08640  Biso   1.000  H
  C62      1.0000 0.57470  0.16970  0.99550  Biso   1.000  C
  H43      1.0000 0.57570  0.14180  0.97730  Biso   1.000  H
  C63      1.0000 0.56150  0.20513  0.95720  Biso   1.000  C
  H44      1.0000 0.55410  0.20180  0.91260  Biso   1.000  H
  C64      1.0000 0.60428  0.44970  0.81820  Biso   1.000  C
  C65      1.0000 0.56190  0.47460  0.80150  Biso   1.000  C
  H45      1.0000 0.52960  0.46190  0.79690  Biso   1.000  H
  C66      1.0000 0.56785  0.51851  0.79190  Biso   1.000  C
  H46      1.0000 0.53940  0.53610  0.78050  Biso   1.000  H
  C67      1.0000 0.61520  0.53670  0.79880  Biso   1.000  C
  H47      1.0000 0.61890  0.56660  0.79120  Biso   1.000  H
  C68      1.0000 0.65719  0.51174  0.81670  Biso   1.000  C
  H48      1.0000 0.68940  0.52460  0.82250  Biso   1.000  H
  C69      1.0000 0.65189  0.46775  0.82600  Biso   1.000  C
  H49      1.0000 0.68040  0.45030  0.83740  Biso   1.000  H
  C70      1.0000 0.68980  0.24070  0.97420  Biso   1.000  C
  C71      1.0000 0.68300  0.27630  0.02010  Biso   1.000  C
  C72      1.0000 0.69980  0.19820  0.98810  Biso   1.000  C
  H50      1.0000 0.70420  0.18870  0.03090  Biso   1.000  H
  C73      1.0000 0.70350  0.16950  0.93970  Biso   1.000  C
  H51      1.0000 0.71040  0.14010  0.94900  Biso   1.000  H
  C74      1.0000 0.69710  0.18330  0.87730  Biso   1.000  C
  H52      1.0000 0.69980  0.16380  0.84330  Biso   1.000  H
  C75      1.0000 0.68660  0.22690  0.86570  Biso   1.000  C
  C76      1.0000 0.67850  0.24730  0.80030  Biso   1.000  C
  C77      1.0000 0.79090  0.33370  0.78370  Biso   1.000  C
  C78      1.0000 0.81400  0.35660  0.73870  Biso   1.000  C
  H53      1.0000 0.80700  0.38630  0.73160  Biso   1.000  H
  C79      1.0000 0.84750  0.33510  0.70440  Biso   1.000  C
  H54      1.0000 0.86360  0.35020  0.67350  Biso   1.000  H
  C80      1.0000 0.85740  0.29180  0.71510  Biso   1.000  C
  H55      1.0000 0.87980  0.27730  0.69090  Biso   1.000  H
  C81      1.0000 0.83500  0.26940  0.76100  Biso   1.000  C
  H56      1.0000 0.84270  0.23990  0.76880  Biso   1.000  H
  C82      1.0000 0.80110  0.29030  0.79530  Biso   1.000  C
  H57      1.0000 0.78500  0.27520  0.82620  Biso   1.000  H
  C83      1.0000 0.74660  0.30010  0.56910  Biso   1.000  C
  C84      1.0000 0.75170  0.33910  0.53850  Biso   1.000  C
  H58      1.0000 0.72720  0.36100  0.53930  Biso   1.000  H
  C85      1.0000 0.79360  0.34540  0.50670  Biso   1.000  C
  H59      1.0000 0.79780  0.37190  0.48550  Biso   1.000  H
  C86      1.0000 0.82920  0.31330  0.50580  Biso   1.000  C
  H60      1.0000 0.85730  0.31770  0.48320  Biso   1.000  H
  C87      1.0000 0.82430  0.27470  0.53750  Biso   1.000  C
  H61      1.0000 0.84930  0.25320  0.53770  Biso   1.000  H
  C88      1.0000 0.78240  0.26780  0.56900  Biso   1.000  C
  H62      1.0000 0.77830  0.24140  0.59030  Biso   1.000  H
  Mn6      1.0000 0.65984  0.31520  0.89527  Biso   1.000  Mn
  Mn7      1.0000 0.64650  0.33986  0.72538  Biso   1.000  Mn
  Mn8      1.0000 0.57275  0.29806  0.59264  Biso   1.000  Mn
  N3       1.0000 0.52016  0.44474  0.58570  Biso   1.000  N
  N4       1.0000 0.68320  0.25410  0.91260  Biso   1.000  N
  O22      1.0000 0.54497  0.30337  0.50605  Biso   1.000  O
  O23      1.0000 0.51759  0.38936  0.48160  Biso   1.000  O
  O24      1.0000 0.56001  0.36890  0.60462  Biso   1.000  O
  O25      1.0000 0.62851  0.39556  0.66110  Biso   1.000  O
  O26      1.0000 0.42997  0.43776  0.52900  Biso   1.000  O
  O27      1.0000 0.41760  0.50913  0.52810  Biso   1.000  O
  O28      1.0000 0.55145  0.33933  0.97161  Biso   1.000  O
  O29      1.0000 0.49315  0.29047  0.88133  Biso   1.000  O
  O30      1.0000 0.59214  0.29297  0.88065  Biso   1.000  O
  O31      1.0000 0.53648  0.38453  0.85760  Biso   1.000  O
  O32      1.0000 0.63929  0.37338  0.89198  Biso   1.000  O
  O33      1.0000 0.59253  0.35877  0.77029  Biso   1.000  O
  O34      1.0000 0.66759  0.31177  0.99700  Biso   1.000  O
  O35      1.0000 0.69360  0.26680  0.07800  Biso   1.000  O
  O36      1.0000 0.66651  0.28621  0.79916  Biso   1.000  O
  O37      1.0000 0.68530  0.22377  0.75450  Biso   1.000  O
  O38      1.0000 0.72786  0.33270  0.88910  Biso   1.000  O
  O39      1.0000 0.69238  0.37611  0.77760  Biso   1.000  O
  O40      1.0000 0.69905  0.32319  0.67850  Biso   1.000  O
  O41      1.0000 0.63812  0.30442  0.56680  Biso   1.000  O
  O42      1.0000 0.60170  0.29810  0.68041  Biso   1.000  O
  K1       1.0000 0.50000  0.32176  0.75000  Biso   1.000  K
  Mn9      1.0000 0.01542  0.88906  0.94108  Biso   1.000  Mn
  As11     1.0000 0.95841  0.84430  0.04456  Biso   1.000  As
  As12     1.0000 0.95284  0.79364  0.57006  Biso   1.000  As
  As13     1.0000 0.90577  0.89032  0.66491  Biso   1.000  As
  As14     1.0000 0.75751  0.86217  0.67271  Biso   1.000  As
  As15     1.0000 0.80936  0.79213  0.88599  Biso   1.000  As
  C89      1.0000 0.89676  0.85820  0.07340  Biso   1.000  C
  C90      1.0000 0.87940  0.83260  0.11990  Biso   1.000  C
  H63      1.0000 0.89830  0.80870  0.13710  Biso   1.000  H
  C91      1.0000 0.83360  0.84270  0.14080  Biso   1.000  C
  H64      1.0000 0.82100  0.82560  0.17260  Biso   1.000  H
  C92      1.0000 0.80620  0.87770  0.11550  Biso   1.000  C
  H65      1.0000 0.77470  0.88400  0.12940  Biso   1.000  H
  C93      1.0000 0.82430  0.90350  0.06990  Biso   1.000  C
  H66      1.0000 0.80580  0.92790  0.05370  Biso   1.000  H
  C94      1.0000 0.86980  0.89360  0.04820  Biso   1.000  C
  H67      1.0000 0.88230  0.91080  0.01650  Biso   1.000  H
  C95      1.0000 0.93360  0.94360  0.88140  Biso   1.000  C
  C96      1.0000 0.91290  0.89920  0.87110  Biso   1.000  C
  C97      1.0000 0.91000  0.98130  0.86030  Biso   1.000  C
  H68      1.0000 0.87740  0.98070  0.83780  Biso   1.000  H
  C98      1.0000 0.93530  0.02020  0.87280  Biso   1.000  C
  H69      1.0000 0.91960  0.04640  0.85880  Biso   1.000  H
  C99      1.0000 0.98350  0.02090  0.90580  Biso   1.000  C
  H70      1.0000 0.00100  0.04720  0.91460  Biso   1.000  H
  C100     1.0000 0.00440  0.98190  0.92480  Biso   1.000  C
  C101     1.0000 0.05700  0.97610  0.95840  Biso   1.000  C
  C102     1.0000 0.94067  0.74553  0.51500  Biso   1.000  C
  C103     1.0000 0.93010  0.75129  0.44990  Biso   1.000  C
  H71      1.0000 0.93210  0.77900  0.43150  Biso   1.000  H
  C104     1.0000 0.91660  0.71560  0.41230  Biso   1.000  C
  H72      1.0000 0.90920  0.71880  0.36770  Biso   1.000  H
  C105     1.0000 0.91380  0.67526  0.43960  Biso   1.000  C
  H73      1.0000 0.90380  0.65120  0.41360  Biso   1.000  H
  C106     1.0000 0.92530  0.66970  0.50450  Biso   1.000  C
  H74      1.0000 0.92430  0.64180  0.52270  Biso   1.000  H
  C107     1.0000 0.93850  0.70513  0.54280  Biso   1.000  C
  H75      1.0000 0.94590  0.70180  0.58740  Biso   1.000  H
  C108     1.0000 0.89572  0.94970  0.68180  Biso   1.000  C
  C109     1.0000 0.93810  0.97460  0.69850  Biso   1.000  C
  H76      1.0000 0.97040  0.96190  0.70310  Biso   1.000  H
  C110     1.0000 0.93215  0.01851  0.70810  Biso   1.000  C
  H77      1.0000 0.96060  0.03610  0.71950  Biso   1.000  H
  C111     1.0000 0.88480  0.03670  0.70120  Biso   1.000  C
  H78      1.0000 0.88110  0.06660  0.70880  Biso   1.000  H
  C112     1.0000 0.84281  0.01174  0.68330  Biso   1.000  C
  H79      1.0000 0.81060  0.02460  0.67750  Biso   1.000  H
  C113     1.0000 0.84811  0.96775  0.67400  Biso   1.000  C
  H80      1.0000 0.81960  0.95030  0.66260  Biso   1.000  H
  C114     1.0000 0.81020  0.74070  0.52580  Biso   1.000  C
  C115     1.0000 0.81700  0.77630  0.47990  Biso   1.000  C
  C116     1.0000 0.80020  0.69820  0.51190  Biso   1.000  C
  H81      1.0000 0.79580  0.68870  0.46910  Biso   1.000  H
  C117     1.0000 0.79650  0.66950  0.56030  Biso   1.000  C
  H82      1.0000 0.78960  0.64010  0.55100  Biso   1.000  H
  C118     1.0000 0.80290  0.68330  0.62270  Biso   1.000  C
  H83      1.0000 0.80020  0.66380  0.65670  Biso   1.000  H
  C119     1.0000 0.81340  0.72690  0.63430  Biso   1.000  C
  C120     1.0000 0.82150  0.74730  0.69970  Biso   1.000  C
  C121     1.0000 0.70910  0.83370  0.71630  Biso   1.000  C
  C122     1.0000 0.68600  0.85660  0.76130  Biso   1.000  C
  H84      1.0000 0.69300  0.88630  0.76840  Biso   1.000  H
  C123     1.0000 0.65250  0.83510  0.79560  Biso   1.000  C
  H85      1.0000 0.63640  0.85020  0.82650  Biso   1.000  H
  C124     1.0000 0.64260  0.79180  0.78490  Biso   1.000  C
  H86      1.0000 0.62020  0.77730  0.80910  Biso   1.000  H
  C125     1.0000 0.66500  0.76940  0.73900  Biso   1.000  C
  H87      1.0000 0.65730  0.73990  0.73120  Biso   1.000  H
  C126     1.0000 0.69890  0.79030  0.70470  Biso   1.000  C
  H88      1.0000 0.71500  0.77520  0.67380  Biso   1.000  H
  C127     1.0000 0.75340  0.80010  0.93090  Biso   1.000  C
  C128     1.0000 0.74830  0.83910  0.96150  Biso   1.000  C
  H89      1.0000 0.77280  0.86100  0.96070  Biso   1.000  H
  C129     1.0000 0.70640  0.84540  0.99330  Biso   1.000  C
  H90      1.0000 0.70220  0.87190  0.01450  Biso   1.000  H
  C130     1.0000 0.67080  0.81330  0.99420  Biso   1.000  C
  H91      1.0000 0.64270  0.81770  0.01680  Biso   1.000  H
  C131     1.0000 0.67570  0.77470  0.96250  Biso   1.000  C
  H92      1.0000 0.65070  0.75320  0.96230  Biso   1.000  H
  C132     1.0000 0.71760  0.76780  0.93100  Biso   1.000  C
  H93      1.0000 0.72170  0.74140  0.90970  Biso   1.000  H
  Mn10     1.0000 0.84016  0.81520  0.60473  Biso   1.000  Mn
  Mn11     1.0000 0.85350  0.83986  0.77462  Biso   1.000  Mn
  Mn12     1.0000 0.92725  0.79806  0.90736  Biso   1.000  Mn
  N5       1.0000 0.97984  0.94474  0.91430  Biso   1.000  N
  N6       1.0000 0.81680  0.75410  0.58740  Biso   1.000  N
  O43      1.0000 0.95503  0.80337  0.99395  Biso   1.000  O
  O44      1.0000 0.98241  0.88936  0.01840  Biso   1.000  O
  O45      1.0000 0.93999  0.86890  0.89538  Biso   1.000  O
  O46      1.0000 0.87149  0.89556  0.83890  Biso   1.000  O
  O47      1.0000 0.07003  0.93776  0.97100  Biso   1.000  O
  O48      1.0000 0.08240  0.00913  0.97190  Biso   1.000  O
  O49      1.0000 0.94855  0.83933  0.52839  Biso   1.000  O
  O50      1.0000 0.00685  0.79047  0.61867  Biso   1.000  O
  O51      1.0000 0.90786  0.79297  0.61935  Biso   1.000  O
  O52      1.0000 0.96352  0.88453  0.64240  Biso   1.000  O
  O53      1.0000 0.86071  0.87338  0.60802  Biso   1.000  O
  O54      1.0000 0.90747  0.85877  0.72971  Biso   1.000  O
  O55      1.0000 0.83241  0.81177  0.50300  Biso   1.000  O
  O56      1.0000 0.80640  0.76680  0.42200  Biso   1.000  O
  O57      1.0000 0.83349  0.78621  0.70084  Biso   1.000  O
  O58      1.0000 0.81470  0.72377  0.74550  Biso   1.000  O
  O59      1.0000 0.77214  0.83270  0.61090  Biso   1.000  O
  O60      1.0000 0.80762  0.87611  0.72240  Biso   1.000  O
  O61      1.0000 0.80095  0.82319  0.82150  Biso   1.000  O
  O62      1.0000 0.86188  0.80442  0.93320  Biso   1.000  O
  O63      1.0000 0.89830  0.79810  0.81959  Biso   1.000  O
  Mn13     1.0000 0.98458  0.88906  0.55892  Biso   1.000  Mn
  As16     1.0000 0.04159  0.84430  0.45544  Biso   1.000  As
  As17     1.0000 0.04716  0.79364  0.92994  Biso   1.000  As
  As18     1.0000 0.09423  0.89032  0.83509  Biso   1.000  As
  As19     1.0000 0.24249  0.86217  0.82729  Biso   1.000  As
  As20     1.0000 0.19064  0.79213  0.61401  Biso   1.000  As
  C133     1.0000 0.10324  0.85820  0.42660  Biso   1.000  C
  C134     1.0000 0.12060  0.83260  0.38010  Biso   1.000  C
  H94      1.0000 0.10170  0.80870  0.36290  Biso   1.000  H
  C135     1.0000 0.16640  0.84270  0.35920  Biso   1.000  C
  H95      1.0000 0.17900  0.82560  0.32740  Biso   1.000  H
  C136     1.0000 0.19380  0.87770  0.38450  Biso   1.000  C
  H96      1.0000 0.22530  0.88400  0.37060  Biso   1.000  H
  C137     1.0000 0.17570  0.90350  0.43010  Biso   1.000  C
  H97      1.0000 0.19420  0.92790  0.44630  Biso   1.000  H
  C138     1.0000 0.13020  0.89360  0.45180  Biso   1.000  C
  H98      1.0000 0.11770  0.91080  0.48350  Biso   1.000  H
  C139     1.0000 0.06640  0.94360  0.61860  Biso   1.000  C
  C140     1.0000 0.08710  0.89920  0.62890  Biso   1.000  C
  C141     1.0000 0.09000  0.98130  0.63970  Biso   1.000  C
  H99      1.0000 0.12260  0.98070  0.66220  Biso   1.000  H
  C142     1.0000 0.06470  0.02020  0.62720  Biso   1.000  C
  H100     1.0000 0.08040  0.04640  0.64120  Biso   1.000  H
  C143     1.0000 0.01650  0.02090  0.59420  Biso   1.000  C
  H101     1.0000 0.99900  0.04720  0.58540  Biso   1.000  H
  C144     1.0000 0.99560  0.98190  0.57520  Biso   1.000  C
  C145     1.0000 0.94300  0.97610  0.54160  Biso   1.000  C
  C146     1.0000 0.05933  0.74553  0.98500  Biso   1.000  C
  C147     1.0000 0.06990  0.75129  0.05010  Biso   1.000  C
  H102     1.0000 0.06790  0.77900  0.06850  Biso   1.000  H
  C148     1.0000 0.08340  0.71560  0.08770  Biso   1.000  C
  H103     1.0000 0.09080  0.71880  0.13230  Biso   1.000  H
  C149     1.0000 0.08620  0.67526  0.06040  Biso   1.000  C
  H104     1.0000 0.09620  0.65120  0.08640  Biso   1.000  H
  C150     1.0000 0.07470  0.66970  0.99550  Biso   1.000  C
  H105     1.0000 0.07570  0.64180  0.97730  Biso   1.000  H
  C151     1.0000 0.06150  0.70513  0.95720  Biso   1.000  C
  H106     1.0000 0.05410  0.70180  0.91260  Biso   1.000  H
  C152     1.0000 0.10428  0.94970  0.81820  Biso   1.000  C
  C153     1.0000 0.06190  0.97460  0.80150  Biso   1.000  C
  H107     1.0000 0.02960  0.96190  0.79690  Biso   1.000  H
  C154     1.0000 0.06785  0.01851  0.79190  Biso   1.000  C
  H108     1.0000 0.03940  0.03610  0.78050  Biso   1.000  H
  C155     1.0000 0.11520  0.03670  0.79880  Biso   1.000  C
  H109     1.0000 0.11890  0.06660  0.79120  Biso   1.000  H
  C156     1.0000 0.15719  0.01174  0.81670  Biso   1.000  C
  H110     1.0000 0.18940  0.02460  0.82250  Biso   1.000  H
  C157     1.0000 0.15189  0.96775  0.82600  Biso   1.000  C
  H111     1.0000 0.18040  0.95030  0.83740  Biso   1.000  H
  C158     1.0000 0.18980  0.74070  0.97420  Biso   1.000  C
  C159     1.0000 0.18300  0.77630  0.02010  Biso   1.000  C
  C160     1.0000 0.19980  0.69820  0.98810  Biso   1.000  C
  H112     1.0000 0.20420  0.68870  0.03090  Biso   1.000  H
  C161     1.0000 0.20350  0.66950  0.93970  Biso   1.000  C
  H113     1.0000 0.21040  0.64010  0.94900  Biso   1.000  H
  C162     1.0000 0.19710  0.68330  0.87730  Biso   1.000  C
  H114     1.0000 0.19980  0.66380  0.84330  Biso   1.000  H
  C163     1.0000 0.18660  0.72690  0.86570  Biso   1.000  C
  C164     1.0000 0.17850  0.74730  0.80030  Biso   1.000  C
  C165     1.0000 0.29090  0.83370  0.78370  Biso   1.000  C
  C166     1.0000 0.31400  0.85660  0.73870  Biso   1.000  C
  H115     1.0000 0.30700  0.88630  0.73160  Biso   1.000  H
  C167     1.0000 0.34750  0.83510  0.70440  Biso   1.000  C
  H116     1.0000 0.36360  0.85020  0.67350  Biso   1.000  H
  C168     1.0000 0.35740  0.79180  0.71510  Biso   1.000  C
  H117     1.0000 0.37980  0.77730  0.69090  Biso   1.000  H
  C169     1.0000 0.33500  0.76940  0.76100  Biso   1.000  C
  H118     1.0000 0.34270  0.73990  0.76880  Biso   1.000  H
  C170     1.0000 0.30110  0.79030  0.79530  Biso   1.000  C
  H119     1.0000 0.28500  0.77520  0.82620  Biso   1.000  H
  C171     1.0000 0.24660  0.80010  0.56910  Biso   1.000  C
  C172     1.0000 0.25170  0.83910  0.53850  Biso   1.000  C
  H120     1.0000 0.22720  0.86100  0.53930  Biso   1.000  H
  C173     1.0000 0.29360  0.84540  0.50670  Biso   1.000  C
  H121     1.0000 0.29780  0.87190  0.48550  Biso   1.000  H
  C174     1.0000 0.32920  0.81330  0.50580  Biso   1.000  C
  H122     1.0000 0.35730  0.81770  0.48320  Biso   1.000  H
  C175     1.0000 0.32430  0.77470  0.53750  Biso   1.000  C
  H123     1.0000 0.34930  0.75320  0.53770  Biso   1.000  H
  C176     1.0000 0.28240  0.76780  0.56900  Biso   1.000  C
  H124     1.0000 0.27830  0.74140  0.59030  Biso   1.000  H
  Mn14     1.0000 0.15984  0.81520  0.89527  Biso   1.000  Mn
  Mn15     1.0000 0.14650  0.83986  0.72538  Biso   1.000  Mn
  Mn16     1.0000 0.07275  0.79806  0.59264  Biso   1.000  Mn
  N7       1.0000 0.02016  0.94474  0.58570  Biso   1.000  N
  N8       1.0000 0.18320  0.75410  0.91260  Biso   1.000  N
  O64      1.0000 0.04497  0.80337  0.50605  Biso   1.000  O
  O65      1.0000 0.01759  0.88936  0.48160  Biso   1.000  O
  O66      1.0000 0.06001  0.86890  0.60462  Biso   1.000  O
  O67      1.0000 0.12851  0.89556  0.66110  Biso   1.000  O
  O68      1.0000 0.92997  0.93776  0.52900  Biso   1.000  O
  O69      1.0000 0.91760  0.00913  0.52810  Biso   1.000  O
  O70      1.0000 0.05145  0.83933  0.97161  Biso   1.000  O
  O71      1.0000 0.99315  0.79047  0.88133  Biso   1.000  O
  O72      1.0000 0.09214  0.79297  0.88065  Biso   1.000  O
  O73      1.0000 0.03648  0.88453  0.85760  Biso   1.000  O
  O74      1.0000 0.13929  0.87338  0.89198  Biso   1.000  O
  O75      1.0000 0.09253  0.85877  0.77029  Biso   1.000  O
  O76      1.0000 0.16759  0.81177  0.99700  Biso   1.000  O
  O77      1.0000 0.19360  0.76680  0.07800  Biso   1.000  O
  O78      1.0000 0.16651  0.78621  0.79916  Biso   1.000  O
  O79      1.0000 0.18530  0.72377  0.75450  Biso   1.000  O
  O80      1.0000 0.22786  0.83270  0.88910  Biso   1.000  O
  O81      1.0000 0.19238  0.87611  0.77760  Biso   1.000  O
  O82      1.0000 0.19905  0.82319  0.67850  Biso   1.000  O
  O83      1.0000 0.13812  0.80442  0.56680  Biso   1.000  O
  O84      1.0000 0.10170  0.79810  0.68041  Biso   1.000  O
  K2       1.0000 0.00000  0.82176  0.75000  Biso   1.000  K
  Mn17     1.0000 0.48458  0.61094  0.05892  Biso   1.000  Mn
  As21     1.0000 0.54159  0.65570  0.95544  Biso   1.000  As
  As22     1.0000 0.54716  0.70636  0.42994  Biso   1.000  As
  As23     1.0000 0.59423  0.60968  0.33509  Biso   1.000  As
  As24     1.0000 0.74249  0.63783  0.32729  Biso   1.000  As
  As25     1.0000 0.69064  0.70787  0.11401  Biso   1.000  As
  C177     1.0000 0.60324  0.64180  0.92660  Biso   1.000  C
  C178     1.0000 0.62060  0.66740  0.88010  Biso   1.000  C
  H125     1.0000 0.60170  0.69130  0.86290  Biso   1.000  H
  C179     1.0000 0.66640  0.65730  0.85920  Biso   1.000  C
  H126     1.0000 0.67900  0.67440  0.82740  Biso   1.000  H
  C180     1.0000 0.69380  0.62230  0.88450  Biso   1.000  C
  H127     1.0000 0.72530  0.61600  0.87060  Biso   1.000  H
  C181     1.0000 0.67570  0.59650  0.93010  Biso   1.000  C
  H128     1.0000 0.69420  0.57210  0.94630  Biso   1.000  H
  C182     1.0000 0.63020  0.60640  0.95180  Biso   1.000  C
  H129     1.0000 0.61770  0.58920  0.98350  Biso   1.000  H
  C183     1.0000 0.56640  0.55640  0.11860  Biso   1.000  C
  C184     1.0000 0.58710  0.60080  0.12890  Biso   1.000  C
  C185     1.0000 0.59000  0.51870  0.13970  Biso   1.000  C
  H130     1.0000 0.62260  0.51930  0.16220  Biso   1.000  H
  C186     1.0000 0.56470  0.47980  0.12720  Biso   1.000  C
  H131     1.0000 0.58040  0.45360  0.14120  Biso   1.000  H
  C187     1.0000 0.51650  0.47910  0.09420  Biso   1.000  C
  H132     1.0000 0.49900  0.45280  0.08540  Biso   1.000  H
  C188     1.0000 0.49560  0.51810  0.07520  Biso   1.000  C
  C189     1.0000 0.44300  0.52390  0.04160  Biso   1.000  C
  C190     1.0000 0.55933  0.75447  0.48500  Biso   1.000  C
  C191     1.0000 0.56990  0.74871  0.55010  Biso   1.000  C
  H133     1.0000 0.56790  0.72100  0.56850  Biso   1.000  H
  C192     1.0000 0.58340  0.78440  0.58770  Biso   1.000  C
  H134     1.0000 0.59080  0.78120  0.63230  Biso   1.000  H
  C193     1.0000 0.58620  0.82474  0.56040  Biso   1.000  C
  H135     1.0000 0.59620  0.84880  0.58640  Biso   1.000  H
  C194     1.0000 0.57470  0.83030  0.49550  Biso   1.000  C
  H136     1.0000 0.57570  0.85820  0.47730  Biso   1.000  H
  C195     1.0000 0.56150  0.79487  0.45720  Biso   1.000  C
  H137     1.0000 0.55410  0.79820  0.41260  Biso   1.000  H
  C196     1.0000 0.60428  0.55030  0.31820  Biso   1.000  C
  C197     1.0000 0.56190  0.52540  0.30150  Biso   1.000  C
  H138     1.0000 0.52960  0.53810  0.29690  Biso   1.000  H
  C198     1.0000 0.56785  0.48149  0.29190  Biso   1.000  C
  H139     1.0000 0.53940  0.46390  0.28050  Biso   1.000  H
  C199     1.0000 0.61520  0.46330  0.29880  Biso   1.000  C
  H140     1.0000 0.61890  0.43340  0.29120  Biso   1.000  H
  C200     1.0000 0.65719  0.48826  0.31670  Biso   1.000  C
  H141     1.0000 0.68940  0.47540  0.32250  Biso   1.000  H
  C201     1.0000 0.65189  0.53225  0.32600  Biso   1.000  C
  H142     1.0000 0.68040  0.54970  0.33740  Biso   1.000  H
  C202     1.0000 0.68980  0.75930  0.47420  Biso   1.000  C
  C203     1.0000 0.68300  0.72370  0.52010  Biso   1.000  C
  C204     1.0000 0.69980  0.80180  0.48810  Biso   1.000  C
  H143     1.0000 0.70420  0.81130  0.53090  Biso   1.000  H
  C205     1.0000 0.70350  0.83050  0.43970  Biso   1.000  C
  H144     1.0000 0.71040  0.85990  0.44900  Biso   1.000  H
  C206     1.0000 0.69710  0.81670  0.37730  Biso   1.000  C
  H145     1.0000 0.69980  0.83620  0.34330  Biso   1.000  H
  C207     1.0000 0.68660  0.77310  0.36570  Biso   1.000  C
  C208     1.0000 0.67850  0.75270  0.30030  Biso   1.000  C
  C209     1.0000 0.79090  0.66630  0.28370  Biso   1.000  C
  C210     1.0000 0.81400  0.64340  0.23870  Biso   1.000  C
  H146     1.0000 0.80700  0.61370  0.23160  Biso   1.000  H
  C211     1.0000 0.84750  0.66490  0.20440  Biso   1.000  C
  H147     1.0000 0.86360  0.64980  0.17350  Biso   1.000  H
  C212     1.0000 0.85740  0.70820  0.21510  Biso   1.000  C
  H148     1.0000 0.87980  0.72270  0.19090  Biso   1.000  H
  C213     1.0000 0.83500  0.73060  0.26100  Biso   1.000  C
  H149     1.0000 0.84270  0.76010  0.26880  Biso   1.000  H
  C214     1.0000 0.80110  0.70970  0.29530  Biso   1.000  C
  H150     1.0000 0.78500  0.72480  0.32620  Biso   1.000  H
  C215     1.0000 0.74660  0.69990  0.06910  Biso   1.000  C
  C216     1.0000 0.75170  0.66090  0.03850  Biso   1.000  C
  H151     1.0000 0.72720  0.63900  0.03930  Biso   1.000  H
  C217     1.0000 0.79360  0.65460  0.00670  Biso   1.000  C
  H152     1.0000 0.79780  0.62810  0.98550  Biso   1.000  H
  C218     1.0000 0.82920  0.68670  0.00580  Biso   1.000  C
  H153     1.0000 0.85730  0.68230  0.98320  Biso   1.000  H
  C219     1.0000 0.82430  0.72530  0.03750  Biso   1.000  C
  H154     1.0000 0.84930  0.74680  0.03770  Biso   1.000  H
  C220     1.0000 0.78240  0.73220  0.06900  Biso   1.000  C
  H155     1.0000 0.77830  0.75860  0.09030  Biso   1.000  H
  Mn18     1.0000 0.65984  0.68480  0.39527  Biso   1.000  Mn
  Mn19     1.0000 0.64650  0.66014  0.22538  Biso   1.000  Mn
  Mn20     1.0000 0.57275  0.70194  0.09264  Biso   1.000  Mn
  N9       1.0000 0.52016  0.55526  0.08570  Biso   1.000  N
  N10      1.0000 0.68320  0.74590  0.41260  Biso   1.000  N
  O85      1.0000 0.54497  0.69663  0.00605  Biso   1.000  O
  O86      1.0000 0.51759  0.61064  0.98160  Biso   1.000  O
  O87      1.0000 0.56001  0.63110  0.10462  Biso   1.000  O
  O88      1.0000 0.62851  0.60444  0.16110  Biso   1.000  O
  O89      1.0000 0.42997  0.56224  0.02900  Biso   1.000  O
  O90      1.0000 0.41760  0.49087  0.02810  Biso   1.000  O
  O91      1.0000 0.55145  0.66067  0.47161  Biso   1.000  O
  O92      1.0000 0.49315  0.70953  0.38133  Biso   1.000  O
  O93      1.0000 0.59214  0.70703  0.38065  Biso   1.000  O
  O94      1.0000 0.53648  0.61547  0.35760  Biso   1.000  O
  O95      1.0000 0.63929  0.62662  0.39198  Biso   1.000  O
  O96      1.0000 0.59253  0.64123  0.27029  Biso   1.000  O
  O97      1.0000 0.66759  0.68823  0.49700  Biso   1.000  O
  O98      1.0000 0.69360  0.73320  0.57800  Biso   1.000  O
  O99      1.0000 0.66651  0.71379  0.29916  Biso   1.000  O
  O100     1.0000 0.68530  0.77623  0.25450  Biso   1.000  O
  O101     1.0000 0.72786  0.66730  0.38910  Biso   1.000  O
  O102     1.0000 0.69238  0.62389  0.27760  Biso   1.000  O
  O103     1.0000 0.69905  0.67681  0.17850  Biso   1.000  O
  O104     1.0000 0.63812  0.69558  0.06680  Biso   1.000  O
  O105     1.0000 0.60170  0.70190  0.18041  Biso   1.000  O
  Mn21     1.0000 0.51542  0.61094  0.44108  Biso   1.000  Mn
  As26     1.0000 0.45841  0.65570  0.54456  Biso   1.000  As
  As27     1.0000 0.45284  0.70636  0.07006  Biso   1.000  As
  As28     1.0000 0.40577  0.60968  0.16491  Biso   1.000  As
  As29     1.0000 0.25751  0.63783  0.17271  Biso   1.000  As
  As30     1.0000 0.30936  0.70787  0.38599  Biso   1.000  As
  C221     1.0000 0.39676  0.64180  0.57340  Biso   1.000  C
  C222     1.0000 0.37940  0.66740  0.61990  Biso   1.000  C
  H156     1.0000 0.39830  0.69130  0.63710  Biso   1.000  H
  C223     1.0000 0.33360  0.65730  0.64080  Biso   1.000  C
  H157     1.0000 0.32100  0.67440  0.67260  Biso   1.000  H
  C224     1.0000 0.30620  0.62230  0.61550  Biso   1.000  C
  H158     1.0000 0.27470  0.61600  0.62940  Biso   1.000  H
  C225     1.0000 0.32430  0.59650  0.56990  Biso   1.000  C
  H159     1.0000 0.30580  0.57210  0.55370  Biso   1.000  H
  C226     1.0000 0.36980  0.60640  0.54820  Biso   1.000  C
  H160     1.0000 0.38230  0.58920  0.51650  Biso   1.000  H
  C227     1.0000 0.43360  0.55640  0.38140  Biso   1.000  C
  C228     1.0000 0.41290  0.60080  0.37110  Biso   1.000  C
  C229     1.0000 0.41000  0.51870  0.36030  Biso   1.000  C
  H161     1.0000 0.37740  0.51930  0.33780  Biso   1.000  H
  C230     1.0000 0.43530  0.47980  0.37280  Biso   1.000  C
  H162     1.0000 0.41960  0.45360  0.35880  Biso   1.000  H
  C231     1.0000 0.48350  0.47910  0.40580  Biso   1.000  C
  H163     1.0000 0.50100  0.45280  0.41460  Biso   1.000  H
  C232     1.0000 0.50440  0.51810  0.42480  Biso   1.000  C
  C233     1.0000 0.55700  0.52390  0.45840  Biso   1.000  C
  C234     1.0000 0.44067  0.75447  0.01500  Biso   1.000  C
  C235     1.0000 0.43010  0.74871  0.94990  Biso   1.000  C
  H164     1.0000 0.43210  0.72100  0.93150  Biso   1.000  H
  C236     1.0000 0.41660  0.78440  0.91230  Biso   1.000  C
  H165     1.0000 0.40920  0.78120  0.86770  Biso   1.000  H
  C237     1.0000 0.41380  0.82474  0.93960  Biso   1.000  C
  H166     1.0000 0.40380  0.84880  0.91360  Biso   1.000  H
  C238     1.0000 0.42530  0.83030  0.00450  Biso   1.000  C
  H167     1.0000 0.42430  0.85820  0.02270  Biso   1.000  H
  C239     1.0000 0.43850  0.79487  0.04280  Biso   1.000  C
  H168     1.0000 0.44590  0.79820  0.08740  Biso   1.000  H
  C240     1.0000 0.39572  0.55030  0.18180  Biso   1.000  C
  C241     1.0000 0.43810  0.52540  0.19850  Biso   1.000  C
  H169     1.0000 0.47040  0.53810  0.20310  Biso   1.000  H
  C242     1.0000 0.43215  0.48149  0.20810  Biso   1.000  C
  H170     1.0000 0.46060  0.46390  0.21950  Biso   1.000  H
  C243     1.0000 0.38480  0.46330  0.20120  Biso   1.000  C
  H171     1.0000 0.38110  0.43340  0.20880  Biso   1.000  H
  C244     1.0000 0.34281  0.48826  0.18330  Biso   1.000  C
  H172     1.0000 0.31060  0.47540  0.17750  Biso   1.000  H
  C245     1.0000 0.34811  0.53225  0.17400  Biso   1.000  C
  H173     1.0000 0.31960  0.54970  0.16260  Biso   1.000  H
  C246     1.0000 0.31020  0.75930  0.02580  Biso   1.000  C
  C247     1.0000 0.31700  0.72370  0.97990  Biso   1.000  C
  C248     1.0000 0.30020  0.80180  0.01190  Biso   1.000  C
  H174     1.0000 0.29580  0.81130  0.96910  Biso   1.000  H
  C249     1.0000 0.29650  0.83050  0.06030  Biso   1.000  C
  H175     1.0000 0.28960  0.85990  0.05100  Biso   1.000  H
  C250     1.0000 0.30290  0.81670  0.12270  Biso   1.000  C
  H176     1.0000 0.30020  0.83620  0.15670  Biso   1.000  H
  C251     1.0000 0.31340  0.77310  0.13430  Biso   1.000  C
  C252     1.0000 0.32150  0.75270  0.19970  Biso   1.000  C
  C253     1.0000 0.20910  0.66630  0.21630  Biso   1.000  C
  C254     1.0000 0.18600  0.64340  0.26130  Biso   1.000  C
  H177     1.0000 0.19300  0.61370  0.26840  Biso   1.000  H
  C255     1.0000 0.15250  0.66490  0.29560  Biso   1.000  C
  H178     1.0000 0.13640  0.64980  0.32650  Biso   1.000  H
  C256     1.0000 0.14260  0.70820  0.28490  Biso   1.000  C
  H179     1.0000 0.12020  0.72270  0.30910  Biso   1.000  H
  C257     1.0000 0.16500  0.73060  0.23900  Biso   1.000  C
  H180     1.0000 0.15730  0.76010  0.23120  Biso   1.000  H
  C258     1.0000 0.19890  0.70970  0.20470  Biso   1.000  C
  H181     1.0000 0.21500  0.72480  0.17380  Biso   1.000  H
  C259     1.0000 0.25340  0.69990  0.43090  Biso   1.000  C
  C260     1.0000 0.24830  0.66090  0.46150  Biso   1.000  C
  H182     1.0000 0.27280  0.63900  0.46070  Biso   1.000  H
  C261     1.0000 0.20640  0.65460  0.49330  Biso   1.000  C
  H183     1.0000 0.20220  0.62810  0.51450  Biso   1.000  H
  C262     1.0000 0.17080  0.68670  0.49420  Biso   1.000  C
  H184     1.0000 0.14270  0.68230  0.51680  Biso   1.000  H
  C263     1.0000 0.17570  0.72530  0.46250  Biso   1.000  C
  H185     1.0000 0.15070  0.74680  0.46230  Biso   1.000  H
  C264     1.0000 0.21760  0.73220  0.43100  Biso   1.000  C
  H186     1.0000 0.22170  0.75860  0.40970  Biso   1.000  H
  Mn22     1.0000 0.34016  0.68480  0.10473  Biso   1.000  Mn
  Mn23     1.0000 0.35350  0.66014  0.27462  Biso   1.000  Mn
  Mn24     1.0000 0.42725  0.70194  0.40736  Biso   1.000  Mn
  N11      1.0000 0.47984  0.55526  0.41430  Biso   1.000  N
  N12      1.0000 0.31680  0.74590  0.08740  Biso   1.000  N
  O106     1.0000 0.45503  0.69663  0.49395  Biso   1.000  O
  O107     1.0000 0.48241  0.61064  0.51840  Biso   1.000  O
  O108     1.0000 0.43999  0.63110  0.39538  Biso   1.000  O
  O109     1.0000 0.37149  0.60444  0.33890  Biso   1.000  O
  O110     1.0000 0.57003  0.56224  0.47100  Biso   1.000  O
  O111     1.0000 0.58240  0.49087  0.47190  Biso   1.000  O
  O112     1.0000 0.44855  0.66067  0.02839  Biso   1.000  O
  O113     1.0000 0.50685  0.70953  0.11867  Biso   1.000  O
  O114     1.0000 0.40786  0.70703  0.11935  Biso   1.000  O
  O115     1.0000 0.46352  0.61547  0.14240  Biso   1.000  O
  O116     1.0000 0.36071  0.62662  0.10802  Biso   1.000  O
  O117     1.0000 0.40747  0.64123  0.22971  Biso   1.000  O
  O118     1.0000 0.33241  0.68823  0.00300  Biso   1.000  O
  O119     1.0000 0.30640  0.73320  0.92200  Biso   1.000  O
  O120     1.0000 0.33349  0.71379  0.20084  Biso   1.000  O
  O121     1.0000 0.31470  0.77623  0.24550  Biso   1.000  O
  O122     1.0000 0.27214  0.66730  0.11090  Biso   1.000  O
  O123     1.0000 0.30762  0.62389  0.22240  Biso   1.000  O
  O124     1.0000 0.30095  0.67681  0.32150  Biso   1.000  O
  O125     1.0000 0.36188  0.69558  0.43320  Biso   1.000  O
  O126     1.0000 0.39830  0.70190  0.31959  Biso   1.000  O
  K3       1.0000 0.50000  0.67824  0.25000  Biso   1.000  K
  Mn25     1.0000 0.98458  0.11094  0.05892  Biso   1.000  Mn
  As31     1.0000 0.04159  0.15570  0.95544  Biso   1.000  As
  As32     1.0000 0.04716  0.20636  0.42994  Biso   1.000  As
  As33     1.0000 0.09423  0.10968  0.33509  Biso   1.000  As
  As34     1.0000 0.24249  0.13783  0.32729  Biso   1.000  As
  As35     1.0000 0.19064  0.20787  0.11401  Biso   1.000  As
  C265     1.0000 0.10324  0.14180  0.92660  Biso   1.000  C
  C266     1.0000 0.12060  0.16740  0.88010  Biso   1.000  C
  H187     1.0000 0.10170  0.19130  0.86290  Biso   1.000  H
  C267     1.0000 0.16640  0.15730  0.85920  Biso   1.000  C
  H188     1.0000 0.17900  0.17440  0.82740  Biso   1.000  H
  C268     1.0000 0.19380  0.12230  0.88450  Biso   1.000  C
  H189     1.0000 0.22530  0.11600  0.87060  Biso   1.000  H
  C269     1.0000 0.17570  0.09650  0.93010  Biso   1.000  C
  H190     1.0000 0.19420  0.07210  0.94630  Biso   1.000  H
  C270     1.0000 0.13020  0.10640  0.95180  Biso   1.000  C
  H191     1.0000 0.11770  0.08920  0.98350  Biso   1.000  H
  C271     1.0000 0.06640  0.05640  0.11860  Biso   1.000  C
  C272     1.0000 0.08710  0.10080  0.12890  Biso   1.000  C
  C273     1.0000 0.09000  0.01870  0.13970  Biso   1.000  C
  H192     1.0000 0.12260  0.01930  0.16220  Biso   1.000  H
  C274     1.0000 0.06470  0.97980  0.12720  Biso   1.000  C
  H193     1.0000 0.08040  0.95360  0.14120  Biso   1.000  H
  C275     1.0000 0.01650  0.97910  0.09420  Biso   1.000  C
  H194     1.0000 0.99900  0.95280  0.08540  Biso   1.000  H
  C276     1.0000 0.99560  0.01810  0.07520  Biso   1.000  C
  C277     1.0000 0.94300  0.02390  0.04160  Biso   1.000  C
  C278     1.0000 0.05933  0.25447  0.48500  Biso   1.000  C
  C279     1.0000 0.06990  0.24871  0.55010  Biso   1.000  C
  H195     1.0000 0.06790  0.22100  0.56850  Biso   1.000  H
  C280     1.0000 0.08340  0.28440  0.58770  Biso   1.000  C
  H196     1.0000 0.09080  0.28120  0.63230  Biso   1.000  H
  C281     1.0000 0.08620  0.32474  0.56040  Biso   1.000  C
  H197     1.0000 0.09620  0.34880  0.58640  Biso   1.000  H
  C282     1.0000 0.07470  0.33030  0.49550  Biso   1.000  C
  H198     1.0000 0.07570  0.35820  0.47730  Biso   1.000  H
  C283     1.0000 0.06150  0.29487  0.45720  Biso   1.000  C
  H199     1.0000 0.05410  0.29820  0.41260  Biso   1.000  H
  C284     1.0000 0.10428  0.05030  0.31820  Biso   1.000  C
  C285     1.0000 0.06190  0.02540  0.30150  Biso   1.000  C
  H200     1.0000 0.02960  0.03810  0.29690  Biso   1.000  H
  C286     1.0000 0.06785  0.98149  0.29190  Biso   1.000  C
  H201     1.0000 0.03940  0.96390  0.28050  Biso   1.000  H
  C287     1.0000 0.11520  0.96330  0.29880  Biso   1.000  C
  H202     1.0000 0.11890  0.93340  0.29120  Biso   1.000  H
  C288     1.0000 0.15719  0.98826  0.31670  Biso   1.000  C
  H203     1.0000 0.18940  0.97540  0.32250  Biso   1.000  H
  C289     1.0000 0.15189  0.03225  0.32600  Biso   1.000  C
  H204     1.0000 0.18040  0.04970  0.33740  Biso   1.000  H
  C290     1.0000 0.18980  0.25930  0.47420  Biso   1.000  C
  C291     1.0000 0.18300  0.22370  0.52010  Biso   1.000  C
  C292     1.0000 0.19980  0.30180  0.48810  Biso   1.000  C
  H205     1.0000 0.20420  0.31130  0.53090  Biso   1.000  H
  C293     1.0000 0.20350  0.33050  0.43970  Biso   1.000  C
  H206     1.0000 0.21040  0.35990  0.44900  Biso   1.000  H
  C294     1.0000 0.19710  0.31670  0.37730  Biso   1.000  C
  H207     1.0000 0.19980  0.33620  0.34330  Biso   1.000  H
  C295     1.0000 0.18660  0.27310  0.36570  Biso   1.000  C
  C296     1.0000 0.17850  0.25270  0.30030  Biso   1.000  C
  C297     1.0000 0.29090  0.16630  0.28370  Biso   1.000  C
  C298     1.0000 0.31400  0.14340  0.23870  Biso   1.000  C
  H208     1.0000 0.30700  0.11370  0.23160  Biso   1.000  H
  C299     1.0000 0.34750  0.16490  0.20440  Biso   1.000  C
  H209     1.0000 0.36360  0.14980  0.17350  Biso   1.000  H
  C300     1.0000 0.35740  0.20820  0.21510  Biso   1.000  C
  H210     1.0000 0.37980  0.22270  0.19090  Biso   1.000  H
  C301     1.0000 0.33500  0.23060  0.26100  Biso   1.000  C
  H211     1.0000 0.34270  0.26010  0.26880  Biso   1.000  H
  C302     1.0000 0.30110  0.20970  0.29530  Biso   1.000  C
  H212     1.0000 0.28500  0.22480  0.32620  Biso   1.000  H
  C303     1.0000 0.24660  0.19990  0.06910  Biso   1.000  C
  C304     1.0000 0.25170  0.16090  0.03850  Biso   1.000  C
  H213     1.0000 0.22720  0.13900  0.03930  Biso   1.000  H
  C305     1.0000 0.29360  0.15460  0.00670  Biso   1.000  C
  H214     1.0000 0.29780  0.12810  0.98550  Biso   1.000  H
  C306     1.0000 0.32920  0.18670  0.00580  Biso   1.000  C
  H215     1.0000 0.35730  0.18230  0.98320  Biso   1.000  H
  C307     1.0000 0.32430  0.22530  0.03750  Biso   1.000  C
  H216     1.0000 0.34930  0.24680  0.03770  Biso   1.000  H
  C308     1.0000 0.28240  0.23220  0.06900  Biso   1.000  C
  H217     1.0000 0.27830  0.25860  0.09030  Biso   1.000  H
  Mn26     1.0000 0.15984  0.18480  0.39527  Biso   1.000  Mn
  Mn27     1.0000 0.14650  0.16014  0.22538  Biso   1.000  Mn
  Mn28     1.0000 0.07275  0.20194  0.09264  Biso   1.000  Mn
  N13      1.0000 0.02016  0.05526  0.08570  Biso   1.000  N
  N14      1.0000 0.18320  0.24590  0.41260  Biso   1.000  N
  O127     1.0000 0.04497  0.19663  0.00605  Biso   1.000  O
  O128     1.0000 0.01759  0.11064  0.98160  Biso   1.000  O
  O129     1.0000 0.06001  0.13110  0.10462  Biso   1.000  O
  O130     1.0000 0.12851  0.10444  0.16110  Biso   1.000  O
  O131     1.0000 0.92997  0.06224  0.02900  Biso   1.000  O
  O132     1.0000 0.91760  0.99087  0.02810  Biso   1.000  O
  O133     1.0000 0.05145  0.16067  0.47161  Biso   1.000  O
  O134     1.0000 0.99315  0.20953  0.38133  Biso   1.000  O
  O135     1.0000 0.09214  0.20703  0.38065  Biso   1.000  O
  O136     1.0000 0.03648  0.11547  0.35760  Biso   1.000  O
  O137     1.0000 0.13929  0.12662  0.39198  Biso   1.000  O
  O138     1.0000 0.09253  0.14123  0.27029  Biso   1.000  O
  O139     1.0000 0.16759  0.18823  0.49700  Biso   1.000  O
  O140     1.0000 0.19360  0.23320  0.57800  Biso   1.000  O
  O141     1.0000 0.16651  0.21379  0.29916  Biso   1.000  O
  O142     1.0000 0.18530  0.27623  0.25450  Biso   1.000  O
  O143     1.0000 0.22786  0.16730  0.38910  Biso   1.000  O
  O144     1.0000 0.19238  0.12389  0.27760  Biso   1.000  O
  O145     1.0000 0.19905  0.17681  0.17850  Biso   1.000  O
  O146     1.0000 0.13812  0.19558  0.06680  Biso   1.000  O
  O147     1.0000 0.10170  0.20190  0.18041  Biso   1.000  O
  Mn29     1.0000 0.01542  0.11094  0.44108  Biso   1.000  Mn
  As36     1.0000 0.95841  0.15570  0.54456  Biso   1.000  As
  As37     1.0000 0.95284  0.20636  0.07006  Biso   1.000  As
  As38     1.0000 0.90577  0.10968  0.16491  Biso   1.000  As
  As39     1.0000 0.75751  0.13783  0.17271  Biso   1.000  As
  As40     1.0000 0.80936  0.20787  0.38599  Biso   1.000  As
  C309     1.0000 0.89676  0.14180  0.57340  Biso   1.000  C
  C310     1.0000 0.87940  0.16740  0.61990  Biso   1.000  C
  H218     1.0000 0.89830  0.19130  0.63710  Biso   1.000  H
  C311     1.0000 0.83360  0.15730  0.64080  Biso   1.000  C
  H219     1.0000 0.82100  0.17440  0.67260  Biso   1.000  H
  C312     1.0000 0.80620  0.12230  0.61550  Biso   1.000  C
  H220     1.0000 0.77470  0.11600  0.62940  Biso   1.000  H
  C313     1.0000 0.82430  0.09650  0.56990  Biso   1.000  C
  H221     1.0000 0.80580  0.07210  0.55370  Biso   1.000  H
  C314     1.0000 0.86980  0.10640  0.54820  Biso   1.000  C
  H222     1.0000 0.88230  0.08920  0.51650  Biso   1.000  H
  C315     1.0000 0.93360  0.05640  0.38140  Biso   1.000  C
  C316     1.0000 0.91290  0.10080  0.37110  Biso   1.000  C
  C317     1.0000 0.91000  0.01870  0.36030  Biso   1.000  C
  H223     1.0000 0.87740  0.01930  0.33780  Biso   1.000  H
  C318     1.0000 0.93530  0.97980  0.37280  Biso   1.000  C
  H224     1.0000 0.91960  0.95360  0.35880  Biso   1.000  H
  C319     1.0000 0.98350  0.97910  0.40580  Biso   1.000  C
  H225     1.0000 0.00100  0.95280  0.41460  Biso   1.000  H
  C320     1.0000 0.00440  0.01810  0.42480  Biso   1.000  C
  C321     1.0000 0.05700  0.02390  0.45840  Biso   1.000  C
  C322     1.0000 0.94067  0.25447  0.01500  Biso   1.000  C
  C323     1.0000 0.93010  0.24871  0.94990  Biso   1.000  C
  H226     1.0000 0.93210  0.22100  0.93150  Biso   1.000  H
  C324     1.0000 0.91660  0.28440  0.91230  Biso   1.000  C
  H227     1.0000 0.90920  0.28120  0.86770  Biso   1.000  H
  C325     1.0000 0.91380  0.32474  0.93960  Biso   1.000  C
  H228     1.0000 0.90380  0.34880  0.91360  Biso   1.000  H
  C326     1.0000 0.92530  0.33030  0.00450  Biso   1.000  C
  H229     1.0000 0.92430  0.35820  0.02270  Biso   1.000  H
  C327     1.0000 0.93850  0.29487  0.04280  Biso   1.000  C
  H230     1.0000 0.94590  0.29820  0.08740  Biso   1.000  H
  C328     1.0000 0.89572  0.05030  0.18180  Biso   1.000  C
  C329     1.0000 0.93810  0.02540  0.19850  Biso   1.000  C
  H231     1.0000 0.97040  0.03810  0.20310  Biso   1.000  H
  C330     1.0000 0.93215  0.98149  0.20810  Biso   1.000  C
  H232     1.0000 0.96060  0.96390  0.21950  Biso   1.000  H
  C331     1.0000 0.88480  0.96330  0.20120  Biso   1.000  C
  H233     1.0000 0.88110  0.93340  0.20880  Biso   1.000  H
  C332     1.0000 0.84281  0.98826  0.18330  Biso   1.000  C
  H234     1.0000 0.81060  0.97540  0.17750  Biso   1.000  H
  C333     1.0000 0.84811  0.03225  0.17400  Biso   1.000  C
  H235     1.0000 0.81960  0.04970  0.16260  Biso   1.000  H
  C334     1.0000 0.81020  0.25930  0.02580  Biso   1.000  C
  C335     1.0000 0.81700  0.22370  0.97990  Biso   1.000  C
  C336     1.0000 0.80020  0.30180  0.01190  Biso   1.000  C
  H236     1.0000 0.79580  0.31130  0.96910  Biso   1.000  H
  C337     1.0000 0.79650  0.33050  0.06030  Biso   1.000  C
  H237     1.0000 0.78960  0.35990  0.05100  Biso   1.000  H
  C338     1.0000 0.80290  0.31670  0.12270  Biso   1.000  C
  H238     1.0000 0.80020  0.33620  0.15670  Biso   1.000  H
  C339     1.0000 0.81340  0.27310  0.13430  Biso   1.000  C
  C340     1.0000 0.82150  0.25270  0.19970  Biso   1.000  C
  C341     1.0000 0.70910  0.16630  0.21630  Biso   1.000  C
  C342     1.0000 0.68600  0.14340  0.26130  Biso   1.000  C
  H239     1.0000 0.69300  0.11370  0.26840  Biso   1.000  H
  C343     1.0000 0.65250  0.16490  0.29560  Biso   1.000  C
  H240     1.0000 0.63640  0.14980  0.32650  Biso   1.000  H
  C344     1.0000 0.64260  0.20820  0.28490  Biso   1.000  C
  H241     1.0000 0.62020  0.22270  0.30910  Biso   1.000  H
  C345     1.0000 0.66500  0.23060  0.23900  Biso   1.000  C
  H242     1.0000 0.65730  0.26010  0.23120  Biso   1.000  H
  C346     1.0000 0.69890  0.20970  0.20470  Biso   1.000  C
  H243     1.0000 0.71500  0.22480  0.17380  Biso   1.000  H
  C347     1.0000 0.75340  0.19990  0.43090  Biso   1.000  C
  C348     1.0000 0.74830  0.16090  0.46150  Biso   1.000  C
  H244     1.0000 0.77280  0.13900  0.46070  Biso   1.000  H
  C349     1.0000 0.70640  0.15460  0.49330  Biso   1.000  C
  H245     1.0000 0.70220  0.12810  0.51450  Biso   1.000  H
  C350     1.0000 0.67080  0.18670  0.49420  Biso   1.000  C
  H246     1.0000 0.64270  0.18230  0.51680  Biso   1.000  H
  C351     1.0000 0.67570  0.22530  0.46250  Biso   1.000  C
  H247     1.0000 0.65070  0.24680  0.46230  Biso   1.000  H
  C352     1.0000 0.71760  0.23220  0.43100  Biso   1.000  C
  H248     1.0000 0.72170  0.25860  0.40970  Biso   1.000  H
  Mn30     1.0000 0.84016  0.18480  0.10473  Biso   1.000  Mn
  Mn31     1.0000 0.85350  0.16014  0.27462  Biso   1.000  Mn
  Mn32     1.0000 0.92725  0.20194  0.40736  Biso   1.000  Mn
  N15      1.0000 0.97984  0.05526  0.41430  Biso   1.000  N
  N16      1.0000 0.81680  0.24590  0.08740  Biso   1.000  N
  O148     1.0000 0.95503  0.19663  0.49395  Biso   1.000  O
  O149     1.0000 0.98241  0.11064  0.51840  Biso   1.000  O
  O150     1.0000 0.93999  0.13110  0.39538  Biso   1.000  O
  O151     1.0000 0.87149  0.10444  0.33890  Biso   1.000  O
  O152     1.0000 0.07003  0.06224  0.47100  Biso   1.000  O
  O153     1.0000 0.08240  0.99087  0.47190  Biso   1.000  O
  O154     1.0000 0.94855  0.16067  0.02839  Biso   1.000  O
  O155     1.0000 0.00685  0.20953  0.11867  Biso   1.000  O
  O156     1.0000 0.90786  0.20703  0.11935  Biso   1.000  O
  O157     1.0000 0.96352  0.11547  0.14240  Biso   1.000  O
  O158     1.0000 0.86071  0.12662  0.10802  Biso   1.000  O
  O159     1.0000 0.90747  0.14123  0.22971  Biso   1.000  O
  O160     1.0000 0.83241  0.18823  0.00300  Biso   1.000  O
  O161     1.0000 0.80640  0.23320  0.92200  Biso   1.000  O
  O162     1.0000 0.83349  0.21379  0.20084  Biso   1.000  O
  O163     1.0000 0.81470  0.27623  0.24550  Biso   1.000  O
  O164     1.0000 0.77214  0.16730  0.11090  Biso   1.000  O
  O165     1.0000 0.80762  0.12389  0.22240  Biso   1.000  O
  O166     1.0000 0.80095  0.17681  0.32150  Biso   1.000  O
  O167     1.0000 0.86188  0.19558  0.43320  Biso   1.000  O
  O168     1.0000 0.89830  0.20190  0.31959  Biso   1.000  O
  K4       1.0000 0.00000  0.17824  0.25000  Biso   1.000  K
