data_image0
_cell_length_a       40.533
_cell_length_b       40.533
_cell_length_c       64.804
_cell_angle_alpha    90
_cell_angle_beta     90
_cell_angle_gamma    90

_symmetry_space_group_name_H-M    "P 1"
_symmetry_int_tables_number       1

loop_
  _symmetry_equiv_pos_as_xyz
  'x, y, z'

loop_
  _atom_site_label
  _atom_site_occupancy
  _atom_site_fract_x
  _atom_site_fract_y
  _atom_site_fract_z
  _atom_site_thermal_displace_type
  _atom_site_B_iso_or_equiv
  _atom_site_type_symbol
  Co1      1.0000 0.24138  0.13862  0.46694  Biso   1.000  Co
  Co2      1.0000 0.46718  0.45916  0.22160  Biso   1.000  Co
  S1       1.0000 0.20181  0.09044  0.43879  Biso   1.000  S
  S2       1.0000 0.43713  0.42536  0.18257  Biso   1.000  S
  O1       1.0000 0.22340  0.11780  0.43923  Biso   1.000  O
  O2       1.0000 0.19220  0.07930  0.41859  Biso   1.000  O
  O3       1.0000 0.24960  0.09104  0.47716  Biso   1.000  O
  O4       1.0000 0.19283  0.13557  0.47772  Biso   1.000  O
  O5       1.0000 0.43840  0.42610  0.20494  Biso   1.000  O
  O6       1.0000 0.41530  0.40170  0.17318  Biso   1.000  O
  O7       1.0000 0.50620  0.44900  0.20131  Biso   1.000  O
  O8       1.0000 0.28730  0.14200  0.45419  Biso   1.000  O
  O9       1.0000 0.31840  0.11830  0.47830  Biso   1.000  O
  O10      1.0000 0.48160  0.42180  0.24004  Biso   1.000  O
  O11      1.0000 0.53370  0.42870  0.24193  Biso   1.000  O
  O12      1.0000 0.81450  0.23470  0.45485  Biso   1.000  O
  O13      1.0000 0.79210  0.20720  0.47846  Biso   1.000  O
  C1       1.0000 0.24010  0.06030  0.46920  Biso   1.000  C
  C2       1.0000 0.21920  0.05760  0.45226  Biso   1.000  C
  C3       1.0000 0.21090  0.02670  0.44458  Biso   1.000  C
  H1       1.0000 0.19670  0.02490  0.43300  Biso   1.000  H
  C4       1.0000 0.22360  0.99846  0.45383  Biso   1.000  C
  C5       1.0000 0.24450  0.00120  0.47075  Biso   1.000  C
  H2       1.0000 0.25310  0.98190  0.47710  Biso   1.000  H
  C6       1.0000 0.25270  0.03210  0.47843  Biso   1.000  C
  C7       1.0000 0.21560  0.96490  0.44542  Biso   1.000  C
  C8       1.0000 0.19530  0.96600  0.42588  Biso   1.000  C
  H3       1.0000 0.19100  0.94340  0.42120  Biso   1.000  H
  H4       1.0000 0.17440  0.97720  0.42860  Biso   1.000  H
  H5       1.0000 0.20750  0.97800  0.41520  Biso   1.000  H
  C9       1.0000 0.19730  0.94440  0.46140  Biso   1.000  C
  H6       1.0000 0.19230  0.92260  0.45570  Biso   1.000  H
  H7       1.0000 0.21110  0.94190  0.47370  Biso   1.000  H
  H8       1.0000 0.17670  0.95550  0.46520  Biso   1.000  H
  C10      1.0000 0.24750  0.94610  0.44040  Biso   1.000  C
  H9       1.0000 0.24190  0.92430  0.43500  Biso   1.000  H
  H10      1.0000 0.26020  0.95850  0.43010  Biso   1.000  H
  H11      1.0000 0.26060  0.94370  0.45300  Biso   1.000  H
  C11      1.0000 0.16340  0.12320  0.46840  Biso   1.000  C
  C12      1.0000 0.16527  0.10260  0.45130  Biso   1.000  C
  C13      1.0000 0.13720  0.08620  0.44441  Biso   1.000  C
  H12      1.0000 0.13850  0.07210  0.43270  Biso   1.000  H
  C14      1.0000 0.10740  0.09040  0.45462  Biso   1.000  C
  C15      1.0000 0.10560  0.11100  0.47173  Biso   1.000  C
  H13      1.0000 0.08510  0.11390  0.47870  Biso   1.000  H
  C16      1.0000 0.13360  0.12740  0.47861  Biso   1.000  C
  C17      1.0000 0.07770  0.07040  0.44869  Biso   1.000  C
  C18      1.0000 0.08300  0.05030  0.42929  Biso   1.000  C
  H14      1.0000 0.06290  0.03780  0.42610  Biso   1.000  H
  H15      1.0000 0.08810  0.06510  0.41780  Biso   1.000  H
  H16      1.0000 0.10140  0.03500  0.43140  Biso   1.000  H
  C19      1.0000 0.06890  0.04600  0.46598  Biso   1.000  C
  H17      1.0000 0.04950  0.03310  0.46190  Biso   1.000  H
  H18      1.0000 0.08760  0.03110  0.46840  Biso   1.000  H
  H19      1.0000 0.06410  0.05820  0.47870  Biso   1.000  H
  C20      1.0000 0.04760  0.09230  0.44580  Biso   1.000  C
  H20      1.0000 0.02860  0.07870  0.44200  Biso   1.000  H
  H21      1.0000 0.04290  0.10390  0.45870  Biso   1.000  H
  H22      1.0000 0.05200  0.10840  0.43490  Biso   1.000  H
  C21      1.0000 0.50560  0.43140  0.18205  Biso   1.000  C
  C22      1.0000 0.47680  0.41910  0.17333  Biso   1.000  C
  C23      1.0000 0.47830  0.39950  0.15577  Biso   1.000  C
  H23      1.0000 0.45860  0.39110  0.14980  Biso   1.000  H
  C24      1.0000 0.50870  0.39220  0.14693  Biso   1.000  C
  C25      1.0000 0.53750  0.40440  0.15565  Biso   1.000  C
  H24      1.0000 0.55830  0.39940  0.14960  Biso   1.000  H
  C26      1.0000 0.53600  0.42410  0.17321  Biso   1.000  C
  C27      1.0000 0.51000  0.37230  0.12723  Biso   1.000  C
  C28      1.0000 0.49330  0.33920  0.12970  Biso   1.000  C
  H25      1.0000 0.49460  0.32700  0.11660  Biso   1.000  H
  H26      1.0000 0.50440  0.32650  0.14050  Biso   1.000  H
  H27      1.0000 0.47010  0.34250  0.13340  Biso   1.000  H
  C29      1.0000 0.49190  0.39020  0.10993  Biso   1.000  C
  H28      1.0000 0.49300  0.37690  0.09730  Biso   1.000  H
  H29      1.0000 0.46880  0.39350  0.11380  Biso   1.000  H
  H30      1.0000 0.50240  0.41160  0.10750  Biso   1.000  H
  C30      1.0000 0.54490  0.36620  0.12000  Biso   1.000  C
  H31      1.0000 0.54460  0.35330  0.10720  Biso   1.000  H
  H32      1.0000 0.55590  0.38740  0.11750  Biso   1.000  H
  H33      1.0000 0.55700  0.35400  0.13070  Biso   1.000  H
  C31      1.0000 0.31460  0.13360  0.46186  Biso   1.000  C
  C32      1.0000 0.34460  0.14170  0.44999  Biso   1.000  C
  C33      1.0000 0.34216  0.15750  0.43101  Biso   1.000  C
  H34      1.0000 0.32110  0.16220  0.42530  Biso   1.000  H
  C34      1.0000 0.37060  0.16650  0.42039  Biso   1.000  C
  H35      1.0000 0.36890  0.17730  0.40740  Biso   1.000  H
  C35      1.0000 0.40141  0.15970  0.42874  Biso   1.000  C
  C36      1.0000 0.40386  0.14390  0.44772  Biso   1.000  C
  H36      1.0000 0.42490  0.13930  0.45340  Biso   1.000  H
  C37      1.0000 0.37550  0.13490  0.45834  Biso   1.000  C
  H37      1.0000 0.37710  0.12410  0.47130  Biso   1.000  H
  C38      1.0000 0.43210  0.17200  0.41797  Biso   1.000  C
  C39      1.0000 0.43310  0.17370  0.39656  Biso   1.000  C
  H38      1.0000 0.41470  0.16650  0.38870  Biso   1.000  H
  C40      1.0000 0.46100  0.18600  0.38672  Biso   1.000  C
  H39      1.0000 0.46160  0.18720  0.37210  Biso   1.000  H
  C41      1.0000 0.48780  0.19660  0.39829  Biso   1.000  C
  C42      1.0000 0.48680  0.19480  0.41971  Biso   1.000  C
  H40      1.0000 0.50520  0.20200  0.42760  Biso   1.000  H
  C43      1.0000 0.45900  0.18250  0.42955  Biso   1.000  C
  H41      1.0000 0.45830  0.18130  0.44420  Biso   1.000  H
  C44      1.0000 0.51692  0.21230  0.38758  Biso   1.000  C
  C45      1.0000 0.51225  0.23190  0.37019  Biso   1.000  C
  H42      1.0000 0.49110  0.23320  0.36400  Biso   1.000  H
  C46      1.0000 0.53855  0.24950  0.36192  Biso   1.000  C
  C47      1.0000 0.56953  0.24750  0.37104  Biso   1.000  C
  H43      1.0000 0.58750  0.25950  0.36540  Biso   1.000  H
  C48      1.0000 0.57421  0.22800  0.38842  Biso   1.000  C
  C49      1.0000 0.54791  0.21040  0.39670  Biso   1.000  C
  H44      1.0000 0.55110  0.19710  0.40860  Biso   1.000  H
  C50      1.0000 0.53310  0.27110  0.34345  Biso   1.000  C
  C51      1.0000 0.50390  0.28890  0.34144  Biso   1.000  C
  H45      1.0000 0.48680  0.28630  0.35130  Biso   1.000  H
  C52      1.0000 0.49980  0.31040  0.32494  Biso   1.000  C
  H46      1.0000 0.47990  0.32250  0.32360  Biso   1.000  H
  C53      1.0000 0.52480  0.31410  0.31046  Biso   1.000  C
  C54      1.0000 0.55390  0.29640  0.31247  Biso   1.000  C
  H47      1.0000 0.57100  0.29890  0.30260  Biso   1.000  H
  C55      1.0000 0.55810  0.27480  0.32897  Biso   1.000  C
  H48      1.0000 0.57800  0.26270  0.33030  Biso   1.000  H
  C56      1.0000 0.52100  0.33840  0.29289  Biso   1.000  C
  C57      1.0000 0.48980  0.34580  0.28524  Biso   1.000  C
  H49      1.0000 0.47100  0.33450  0.29040  Biso   1.000  H
  C58      1.0000 0.48610  0.36970  0.27004  Biso   1.000  C
  H50      1.0000 0.46480  0.37470  0.26480  Biso   1.000  H
  C59      1.0000 0.51360  0.38620  0.26248  Biso   1.000  C
  C60      1.0000 0.54480  0.37880  0.27012  Biso   1.000  C
  H51      1.0000 0.56360  0.39010  0.26500  Biso   1.000  H
  C61      1.0000 0.54850  0.35490  0.28533  Biso   1.000  C
  H52      1.0000 0.56980  0.34990  0.29060  Biso   1.000  H
  C62      1.0000 0.50930  0.41350  0.24733  Biso   1.000  C
  C63      1.0000 0.60692  0.22780  0.39953  Biso   1.000  C
  C64      1.0000 0.63590  0.22930  0.38812  Biso   1.000  C
  H53      1.0000 0.63500  0.23150  0.37350  Biso   1.000  H
  C65      1.0000 0.66627  0.22770  0.39804  Biso   1.000  C
  H54      1.0000 0.68610  0.22880  0.39020  Biso   1.000  H
  C66      1.0000 0.66763  0.22460  0.41939  Biso   1.000  C
  C67      1.0000 0.63860  0.22310  0.43080  Biso   1.000  C
  H55      1.0000 0.63960  0.22090  0.44540  Biso   1.000  H
  C68      1.0000 0.60828  0.22460  0.42088  Biso   1.000  C
  H56      1.0000 0.58850  0.22360  0.42870  Biso   1.000  H
  C69      1.0000 0.70079  0.22250  0.43010  Biso   1.000  C
  C70      1.0000 0.72840  0.23720  0.42124  Biso   1.000  C
  H57      1.0000 0.72680  0.24730  0.40800  Biso   1.000  H
  C71      1.0000 0.75840  0.23700  0.43168  Biso   1.000  C
  H58      1.0000 0.77720  0.24700  0.42560  Biso   1.000  H
  C72      1.0000 0.76070  0.22220  0.45098  Biso   1.000  C
  C73      1.0000 0.73310  0.20760  0.45983  Biso   1.000  C
  H59      1.0000 0.73470  0.19750  0.47300  Biso   1.000  H
  C74      1.0000 0.70310  0.20780  0.44940  Biso   1.000  C
  H60      1.0000 0.68430  0.19780  0.45550  Biso   1.000  H
  C75      1.0000 0.79230  0.22220  0.46240  Biso   1.000  C
  Co3      1.0000 0.75862  0.86138  0.46694  Biso   1.000  Co
  Co4      1.0000 0.53282  0.54084  0.22160  Biso   1.000  Co
  S3       1.0000 0.79819  0.90956  0.43879  Biso   1.000  S
  S4       1.0000 0.56287  0.57464  0.18257  Biso   1.000  S
  O14      1.0000 0.77660  0.88220  0.43923  Biso   1.000  O
  O15      1.0000 0.80780  0.92070  0.41859  Biso   1.000  O
  O16      1.0000 0.75040  0.90896  0.47716  Biso   1.000  O
  O17      1.0000 0.80717  0.86443  0.47772  Biso   1.000  O
  O18      1.0000 0.56160  0.57390  0.20494  Biso   1.000  O
  O19      1.0000 0.58470  0.59830  0.17318  Biso   1.000  O
  O20      1.0000 0.49380  0.55100  0.20131  Biso   1.000  O
  O21      1.0000 0.71270  0.85800  0.45419  Biso   1.000  O
  O22      1.0000 0.68160  0.88170  0.47830  Biso   1.000  O
  O23      1.0000 0.51840  0.57820  0.24004  Biso   1.000  O
  O24      1.0000 0.46630  0.57130  0.24193  Biso   1.000  O
  O25      1.0000 0.18550  0.76530  0.45485  Biso   1.000  O
  O26      1.0000 0.20790  0.79280  0.47846  Biso   1.000  O
  C76      1.0000 0.75990  0.93970  0.46920  Biso   1.000  C
  C77      1.0000 0.78080  0.94240  0.45226  Biso   1.000  C
  C78      1.0000 0.78910  0.97330  0.44458  Biso   1.000  C
  H61      1.0000 0.80330  0.97510  0.43300  Biso   1.000  H
  C79      1.0000 0.77640  0.00154  0.45383  Biso   1.000  C
  C80      1.0000 0.75550  0.99880  0.47075  Biso   1.000  C
  H62      1.0000 0.74690  0.01810  0.47710  Biso   1.000  H
  C81      1.0000 0.74730  0.96790  0.47843  Biso   1.000  C
  C82      1.0000 0.78440  0.03510  0.44542  Biso   1.000  C
  C83      1.0000 0.80470  0.03400  0.42588  Biso   1.000  C
  H63      1.0000 0.80900  0.05660  0.42120  Biso   1.000  H
  H64      1.0000 0.82560  0.02280  0.42860  Biso   1.000  H
  H65      1.0000 0.79250  0.02200  0.41520  Biso   1.000  H
  C84      1.0000 0.80270  0.05560  0.46140  Biso   1.000  C
  H66      1.0000 0.80770  0.07740  0.45570  Biso   1.000  H
  H67      1.0000 0.78890  0.05810  0.47370  Biso   1.000  H
  H68      1.0000 0.82330  0.04450  0.46520  Biso   1.000  H
  C85      1.0000 0.75250  0.05390  0.44040  Biso   1.000  C
  H69      1.0000 0.75810  0.07570  0.43500  Biso   1.000  H
  H70      1.0000 0.73980  0.04150  0.43010  Biso   1.000  H
  H71      1.0000 0.73940  0.05630  0.45300  Biso   1.000  H
  C86      1.0000 0.83660  0.87680  0.46840  Biso   1.000  C
  C87      1.0000 0.83473  0.89740  0.45130  Biso   1.000  C
  C88      1.0000 0.86280  0.91380  0.44441  Biso   1.000  C
  H72      1.0000 0.86150  0.92790  0.43270  Biso   1.000  H
  C89      1.0000 0.89260  0.90960  0.45462  Biso   1.000  C
  C90      1.0000 0.89440  0.88900  0.47173  Biso   1.000  C
  H73      1.0000 0.91490  0.88610  0.47870  Biso   1.000  H
  C91      1.0000 0.86640  0.87260  0.47861  Biso   1.000  C
  C92      1.0000 0.92230  0.92960  0.44869  Biso   1.000  C
  C93      1.0000 0.91700  0.94970  0.42929  Biso   1.000  C
  H74      1.0000 0.93710  0.96220  0.42610  Biso   1.000  H
  H75      1.0000 0.91190  0.93490  0.41780  Biso   1.000  H
  H76      1.0000 0.89860  0.96500  0.43140  Biso   1.000  H
  C94      1.0000 0.93110  0.95400  0.46598  Biso   1.000  C
  H77      1.0000 0.95050  0.96690  0.46190  Biso   1.000  H
  H78      1.0000 0.91240  0.96890  0.46840  Biso   1.000  H
  H79      1.0000 0.93590  0.94180  0.47870  Biso   1.000  H
  C95      1.0000 0.95240  0.90770  0.44580  Biso   1.000  C
  H80      1.0000 0.97140  0.92130  0.44200  Biso   1.000  H
  H81      1.0000 0.95710  0.89610  0.45870  Biso   1.000  H
  H82      1.0000 0.94800  0.89160  0.43490  Biso   1.000  H
  C96      1.0000 0.49440  0.56860  0.18205  Biso   1.000  C
  C97      1.0000 0.52320  0.58090  0.17333  Biso   1.000  C
  C98      1.0000 0.52170  0.60050  0.15577  Biso   1.000  C
  H83      1.0000 0.54140  0.60890  0.14980  Biso   1.000  H
  C99      1.0000 0.49130  0.60780  0.14693  Biso   1.000  C
  C100     1.0000 0.46250  0.59560  0.15565  Biso   1.000  C
  H84      1.0000 0.44170  0.60060  0.14960  Biso   1.000  H
  C101     1.0000 0.46400  0.57590  0.17321  Biso   1.000  C
  C102     1.0000 0.49000  0.62770  0.12723  Biso   1.000  C
  C103     1.0000 0.50670  0.66080  0.12970  Biso   1.000  C
  H85      1.0000 0.50540  0.67300  0.11660  Biso   1.000  H
  H86      1.0000 0.49560  0.67350  0.14050  Biso   1.000  H
  H87      1.0000 0.52990  0.65750  0.13340  Biso   1.000  H
  C104     1.0000 0.50810  0.60980  0.10993  Biso   1.000  C
  H88      1.0000 0.50700  0.62310  0.09730  Biso   1.000  H
  H89      1.0000 0.53120  0.60650  0.11380  Biso   1.000  H
  H90      1.0000 0.49760  0.58840  0.10750  Biso   1.000  H
  C105     1.0000 0.45510  0.63380  0.12000  Biso   1.000  C
  H91      1.0000 0.45540  0.64670  0.10720  Biso   1.000  H
  H92      1.0000 0.44410  0.61260  0.11750  Biso   1.000  H
  H93      1.0000 0.44300  0.64600  0.13070  Biso   1.000  H
  C106     1.0000 0.68540  0.86640  0.46186  Biso   1.000  C
  C107     1.0000 0.65540  0.85830  0.44999  Biso   1.000  C
  C108     1.0000 0.65784  0.84250  0.43101  Biso   1.000  C
  H94      1.0000 0.67890  0.83780  0.42530  Biso   1.000  H
  C109     1.0000 0.62940  0.83350  0.42039  Biso   1.000  C
  H95      1.0000 0.63110  0.82270  0.40740  Biso   1.000  H
  C110     1.0000 0.59859  0.84030  0.42874  Biso   1.000  C
  C111     1.0000 0.59614  0.85610  0.44772  Biso   1.000  C
  H96      1.0000 0.57510  0.86070  0.45340  Biso   1.000  H
  C112     1.0000 0.62450  0.86510  0.45834  Biso   1.000  C
  H97      1.0000 0.62290  0.87590  0.47130  Biso   1.000  H
  C113     1.0000 0.56790  0.82800  0.41797  Biso   1.000  C
  C114     1.0000 0.56690  0.82630  0.39656  Biso   1.000  C
  H98      1.0000 0.58530  0.83350  0.38870  Biso   1.000  H
  C115     1.0000 0.53900  0.81400  0.38672  Biso   1.000  C
  H99      1.0000 0.53840  0.81280  0.37210  Biso   1.000  H
  C116     1.0000 0.51220  0.80340  0.39829  Biso   1.000  C
  C117     1.0000 0.51320  0.80520  0.41971  Biso   1.000  C
  H100     1.0000 0.49480  0.79800  0.42760  Biso   1.000  H
  C118     1.0000 0.54100  0.81750  0.42955  Biso   1.000  C
  H101     1.0000 0.54170  0.81870  0.44420  Biso   1.000  H
  C119     1.0000 0.48308  0.78770  0.38758  Biso   1.000  C
  C120     1.0000 0.48775  0.76810  0.37019  Biso   1.000  C
  H102     1.0000 0.50890  0.76680  0.36400  Biso   1.000  H
  C121     1.0000 0.46145  0.75050  0.36192  Biso   1.000  C
  C122     1.0000 0.43047  0.75250  0.37104  Biso   1.000  C
  H103     1.0000 0.41250  0.74050  0.36540  Biso   1.000  H
  C123     1.0000 0.42579  0.77200  0.38842  Biso   1.000  C
  C124     1.0000 0.45209  0.78960  0.39670  Biso   1.000  C
  H104     1.0000 0.44890  0.80290  0.40860  Biso   1.000  H
  C125     1.0000 0.46690  0.72890  0.34345  Biso   1.000  C
  C126     1.0000 0.49610  0.71110  0.34144  Biso   1.000  C
  H105     1.0000 0.51320  0.71370  0.35130  Biso   1.000  H
  C127     1.0000 0.50020  0.68960  0.32494  Biso   1.000  C
  H106     1.0000 0.52010  0.67750  0.32360  Biso   1.000  H
  C128     1.0000 0.47520  0.68590  0.31046  Biso   1.000  C
  C129     1.0000 0.44610  0.70360  0.31247  Biso   1.000  C
  H107     1.0000 0.42900  0.70110  0.30260  Biso   1.000  H
  C130     1.0000 0.44190  0.72520  0.32897  Biso   1.000  C
  H108     1.0000 0.42200  0.73730  0.33030  Biso   1.000  H
  C131     1.0000 0.47900  0.66160  0.29289  Biso   1.000  C
  C132     1.0000 0.51020  0.65420  0.28524  Biso   1.000  C
  H109     1.0000 0.52900  0.66550  0.29040  Biso   1.000  H
  C133     1.0000 0.51390  0.63030  0.27004  Biso   1.000  C
  H110     1.0000 0.53520  0.62530  0.26480  Biso   1.000  H
  C134     1.0000 0.48640  0.61380  0.26248  Biso   1.000  C
  C135     1.0000 0.45520  0.62120  0.27012  Biso   1.000  C
  H111     1.0000 0.43640  0.60990  0.26500  Biso   1.000  H
  C136     1.0000 0.45150  0.64510  0.28533  Biso   1.000  C
  H112     1.0000 0.43020  0.65010  0.29060  Biso   1.000  H
  C137     1.0000 0.49070  0.58650  0.24733  Biso   1.000  C
  C138     1.0000 0.39308  0.77220  0.39953  Biso   1.000  C
  C139     1.0000 0.36410  0.77070  0.38812  Biso   1.000  C
  H113     1.0000 0.36500  0.76850  0.37350  Biso   1.000  H
  C140     1.0000 0.33373  0.77230  0.39804  Biso   1.000  C
  H114     1.0000 0.31390  0.77120  0.39020  Biso   1.000  H
  C141     1.0000 0.33237  0.77540  0.41939  Biso   1.000  C
  C142     1.0000 0.36140  0.77690  0.43080  Biso   1.000  C
  H115     1.0000 0.36040  0.77910  0.44540  Biso   1.000  H
  C143     1.0000 0.39172  0.77540  0.42088  Biso   1.000  C
  H116     1.0000 0.41150  0.77640  0.42870  Biso   1.000  H
  C144     1.0000 0.29921  0.77750  0.43010  Biso   1.000  C
  C145     1.0000 0.27160  0.76280  0.42124  Biso   1.000  C
  H117     1.0000 0.27320  0.75270  0.40800  Biso   1.000  H
  C146     1.0000 0.24160  0.76300  0.43168  Biso   1.000  C
  H118     1.0000 0.22280  0.75300  0.42560  Biso   1.000  H
  C147     1.0000 0.23930  0.77780  0.45098  Biso   1.000  C
  C148     1.0000 0.26690  0.79240  0.45983  Biso   1.000  C
  H119     1.0000 0.26530  0.80250  0.47300  Biso   1.000  H
  C149     1.0000 0.29690  0.79220  0.44940  Biso   1.000  C
  H120     1.0000 0.31570  0.80220  0.45550  Biso   1.000  H
  C150     1.0000 0.20770  0.77780  0.46240  Biso   1.000  C
  Co5      1.0000 0.86138  0.24138  0.46694  Biso   1.000  Co
  Co6      1.0000 0.54084  0.46718  0.22160  Biso   1.000  Co
  S5       1.0000 0.90956  0.20181  0.43879  Biso   1.000  S
  S6       1.0000 0.57464  0.43713  0.18257  Biso   1.000  S
  O27      1.0000 0.88220  0.22340  0.43923  Biso   1.000  O
  O28      1.0000 0.92070  0.19220  0.41859  Biso   1.000  O
  O29      1.0000 0.90896  0.24960  0.47716  Biso   1.000  O
  O30      1.0000 0.86443  0.19283  0.47772  Biso   1.000  O
  O31      1.0000 0.57390  0.43840  0.20494  Biso   1.000  O
  O32      1.0000 0.59830  0.41530  0.17318  Biso   1.000  O
  O33      1.0000 0.55100  0.50620  0.20131  Biso   1.000  O
  O34      1.0000 0.85800  0.28730  0.45419  Biso   1.000  O
  O35      1.0000 0.88170  0.31840  0.47830  Biso   1.000  O
  O36      1.0000 0.57820  0.48160  0.24004  Biso   1.000  O
  O37      1.0000 0.57130  0.53370  0.24193  Biso   1.000  O
  O38      1.0000 0.76530  0.81450  0.45485  Biso   1.000  O
  O39      1.0000 0.79280  0.79210  0.47846  Biso   1.000  O
  C151     1.0000 0.93970  0.24010  0.46920  Biso   1.000  C
  C152     1.0000 0.94240  0.21920  0.45226  Biso   1.000  C
  C153     1.0000 0.97330  0.21090  0.44458  Biso   1.000  C
  H121     1.0000 0.97510  0.19670  0.43300  Biso   1.000  H
  C154     1.0000 0.00154  0.22360  0.45383  Biso   1.000  C
  C155     1.0000 0.99880  0.24450  0.47075  Biso   1.000  C
  H122     1.0000 0.01810  0.25310  0.47710  Biso   1.000  H
  C156     1.0000 0.96790  0.25270  0.47843  Biso   1.000  C
  C157     1.0000 0.03510  0.21560  0.44542  Biso   1.000  C
  C158     1.0000 0.03400  0.19530  0.42588  Biso   1.000  C
  H123     1.0000 0.05660  0.19100  0.42120  Biso   1.000  H
  H124     1.0000 0.02280  0.17440  0.42860  Biso   1.000  H
  H125     1.0000 0.02200  0.20750  0.41520  Biso   1.000  H
  C159     1.0000 0.05560  0.19730  0.46140  Biso   1.000  C
  H126     1.0000 0.07740  0.19230  0.45570  Biso   1.000  H
  H127     1.0000 0.05810  0.21110  0.47370  Biso   1.000  H
  H128     1.0000 0.04450  0.17670  0.46520  Biso   1.000  H
  C160     1.0000 0.05390  0.24750  0.44040  Biso   1.000  C
  H129     1.0000 0.07570  0.24190  0.43500  Biso   1.000  H
  H130     1.0000 0.04150  0.26020  0.43010  Biso   1.000  H
  H131     1.0000 0.05630  0.26060  0.45300  Biso   1.000  H
  C161     1.0000 0.87680  0.16340  0.46840  Biso   1.000  C
  C162     1.0000 0.89740  0.16527  0.45130  Biso   1.000  C
  C163     1.0000 0.91380  0.13720  0.44441  Biso   1.000  C
  H132     1.0000 0.92790  0.13850  0.43270  Biso   1.000  H
  C164     1.0000 0.90960  0.10740  0.45462  Biso   1.000  C
  C165     1.0000 0.88900  0.10560  0.47173  Biso   1.000  C
  H133     1.0000 0.88610  0.08510  0.47870  Biso   1.000  H
  C166     1.0000 0.87260  0.13360  0.47861  Biso   1.000  C
  C167     1.0000 0.92960  0.07770  0.44869  Biso   1.000  C
  C168     1.0000 0.94970  0.08300  0.42929  Biso   1.000  C
  H134     1.0000 0.96220  0.06290  0.42610  Biso   1.000  H
  H135     1.0000 0.93490  0.08810  0.41780  Biso   1.000  H
  H136     1.0000 0.96500  0.10140  0.43140  Biso   1.000  H
  C169     1.0000 0.95400  0.06890  0.46598  Biso   1.000  C
  H137     1.0000 0.96690  0.04950  0.46190  Biso   1.000  H
  H138     1.0000 0.96890  0.08760  0.46840  Biso   1.000  H
  H139     1.0000 0.94180  0.06410  0.47870  Biso   1.000  H
  C170     1.0000 0.90770  0.04760  0.44580  Biso   1.000  C
  H140     1.0000 0.92130  0.02860  0.44200  Biso   1.000  H
  H141     1.0000 0.89610  0.04290  0.45870  Biso   1.000  H
  H142     1.0000 0.89160  0.05200  0.43490  Biso   1.000  H
  C171     1.0000 0.56860  0.50560  0.18205  Biso   1.000  C
  C172     1.0000 0.58090  0.47680  0.17333  Biso   1.000  C
  C173     1.0000 0.60050  0.47830  0.15577  Biso   1.000  C
  H143     1.0000 0.60890  0.45860  0.14980  Biso   1.000  H
  C174     1.0000 0.60780  0.50870  0.14693  Biso   1.000  C
  C175     1.0000 0.59560  0.53750  0.15565  Biso   1.000  C
  H144     1.0000 0.60060  0.55830  0.14960  Biso   1.000  H
  C176     1.0000 0.57590  0.53600  0.17321  Biso   1.000  C
  C177     1.0000 0.62770  0.51000  0.12723  Biso   1.000  C
  C178     1.0000 0.66080  0.49330  0.12970  Biso   1.000  C
  H145     1.0000 0.67300  0.49460  0.11660  Biso   1.000  H
  H146     1.0000 0.67350  0.50440  0.14050  Biso   1.000  H
  H147     1.0000 0.65750  0.47010  0.13340  Biso   1.000  H
  C179     1.0000 0.60980  0.49190  0.10993  Biso   1.000  C
  H148     1.0000 0.62310  0.49300  0.09730  Biso   1.000  H
  H149     1.0000 0.60650  0.46880  0.11380  Biso   1.000  H
  H150     1.0000 0.58840  0.50240  0.10750  Biso   1.000  H
  C180     1.0000 0.63380  0.54490  0.12000  Biso   1.000  C
  H151     1.0000 0.64670  0.54460  0.10720  Biso   1.000  H
  H152     1.0000 0.61260  0.55590  0.11750  Biso   1.000  H
  H153     1.0000 0.64600  0.55700  0.13070  Biso   1.000  H
  C181     1.0000 0.86640  0.31460  0.46186  Biso   1.000  C
  C182     1.0000 0.85830  0.34460  0.44999  Biso   1.000  C
  C183     1.0000 0.84250  0.34216  0.43101  Biso   1.000  C
  H154     1.0000 0.83780  0.32110  0.42530  Biso   1.000  H
  C184     1.0000 0.83350  0.37060  0.42039  Biso   1.000  C
  H155     1.0000 0.82270  0.36890  0.40740  Biso   1.000  H
  C185     1.0000 0.84030  0.40141  0.42874  Biso   1.000  C
  C186     1.0000 0.85610  0.40386  0.44772  Biso   1.000  C
  H156     1.0000 0.86070  0.42490  0.45340  Biso   1.000  H
  C187     1.0000 0.86510  0.37550  0.45834  Biso   1.000  C
  H157     1.0000 0.87590  0.37710  0.47130  Biso   1.000  H
  C188     1.0000 0.82800  0.43210  0.41797  Biso   1.000  C
  C189     1.0000 0.82630  0.43310  0.39656  Biso   1.000  C
  H158     1.0000 0.83350  0.41470  0.38870  Biso   1.000  H
  C190     1.0000 0.81400  0.46100  0.38672  Biso   1.000  C
  H159     1.0000 0.81280  0.46160  0.37210  Biso   1.000  H
  C191     1.0000 0.80340  0.48780  0.39829  Biso   1.000  C
  C192     1.0000 0.80520  0.48680  0.41971  Biso   1.000  C
  H160     1.0000 0.79800  0.50520  0.42760  Biso   1.000  H
  C193     1.0000 0.81750  0.45900  0.42955  Biso   1.000  C
  H161     1.0000 0.81870  0.45830  0.44420  Biso   1.000  H
  C194     1.0000 0.78770  0.51692  0.38758  Biso   1.000  C
  C195     1.0000 0.76810  0.51225  0.37019  Biso   1.000  C
  H162     1.0000 0.76680  0.49110  0.36400  Biso   1.000  H
  C196     1.0000 0.75050  0.53855  0.36192  Biso   1.000  C
  C197     1.0000 0.75250  0.56953  0.37104  Biso   1.000  C
  H163     1.0000 0.74050  0.58750  0.36540  Biso   1.000  H
  C198     1.0000 0.77200  0.57421  0.38842  Biso   1.000  C
  C199     1.0000 0.78960  0.54791  0.39670  Biso   1.000  C
  H164     1.0000 0.80290  0.55110  0.40860  Biso   1.000  H
  C200     1.0000 0.72890  0.53310  0.34345  Biso   1.000  C
  C201     1.0000 0.71110  0.50390  0.34144  Biso   1.000  C
  H165     1.0000 0.71370  0.48680  0.35130  Biso   1.000  H
  C202     1.0000 0.68960  0.49980  0.32494  Biso   1.000  C
  H166     1.0000 0.67750  0.47990  0.32360  Biso   1.000  H
  C203     1.0000 0.68590  0.52480  0.31046  Biso   1.000  C
  C204     1.0000 0.70360  0.55390  0.31247  Biso   1.000  C
  H167     1.0000 0.70110  0.57100  0.30260  Biso   1.000  H
  C205     1.0000 0.72520  0.55810  0.32897  Biso   1.000  C
  H168     1.0000 0.73730  0.57800  0.33030  Biso   1.000  H
  C206     1.0000 0.66160  0.52100  0.29289  Biso   1.000  C
  C207     1.0000 0.65420  0.48980  0.28524  Biso   1.000  C
  H169     1.0000 0.66550  0.47100  0.29040  Biso   1.000  H
  C208     1.0000 0.63030  0.48610  0.27004  Biso   1.000  C
  H170     1.0000 0.62530  0.46480  0.26480  Biso   1.000  H
  C209     1.0000 0.61380  0.51360  0.26248  Biso   1.000  C
  C210     1.0000 0.62120  0.54480  0.27012  Biso   1.000  C
  H171     1.0000 0.60990  0.56360  0.26500  Biso   1.000  H
  C211     1.0000 0.64510  0.54850  0.28533  Biso   1.000  C
  H172     1.0000 0.65010  0.56980  0.29060  Biso   1.000  H
  C212     1.0000 0.58650  0.50930  0.24733  Biso   1.000  C
  C213     1.0000 0.77220  0.60692  0.39953  Biso   1.000  C
  C214     1.0000 0.77070  0.63590  0.38812  Biso   1.000  C
  H173     1.0000 0.76850  0.63500  0.37350  Biso   1.000  H
  C215     1.0000 0.77230  0.66627  0.39804  Biso   1.000  C
  H174     1.0000 0.77120  0.68610  0.39020  Biso   1.000  H
  C216     1.0000 0.77540  0.66763  0.41939  Biso   1.000  C
  C217     1.0000 0.77690  0.63860  0.43080  Biso   1.000  C
  H175     1.0000 0.77910  0.63960  0.44540  Biso   1.000  H
  C218     1.0000 0.77540  0.60828  0.42088  Biso   1.000  C
  H176     1.0000 0.77640  0.58850  0.42870  Biso   1.000  H
  C219     1.0000 0.77750  0.70079  0.43010  Biso   1.000  C
  C220     1.0000 0.76280  0.72840  0.42124  Biso   1.000  C
  H177     1.0000 0.75270  0.72680  0.40800  Biso   1.000  H
  C221     1.0000 0.76300  0.75840  0.43168  Biso   1.000  C
  H178     1.0000 0.75300  0.77720  0.42560  Biso   1.000  H
  C222     1.0000 0.77780  0.76070  0.45098  Biso   1.000  C
  C223     1.0000 0.79240  0.73310  0.45983  Biso   1.000  C
  H179     1.0000 0.80250  0.73470  0.47300  Biso   1.000  H
  C224     1.0000 0.79220  0.70310  0.44940  Biso   1.000  C
  H180     1.0000 0.80220  0.68430  0.45550  Biso   1.000  H
  C225     1.0000 0.77780  0.79230  0.46240  Biso   1.000  C
  Co7      1.0000 0.13862  0.75862  0.46694  Biso   1.000  Co
  Co8      1.0000 0.45916  0.53282  0.22160  Biso   1.000  Co
  S7       1.0000 0.09044  0.79819  0.43879  Biso   1.000  S
  S8       1.0000 0.42536  0.56287  0.18257  Biso   1.000  S
  O40      1.0000 0.11780  0.77660  0.43923  Biso   1.000  O
  O41      1.0000 0.07930  0.80780  0.41859  Biso   1.000  O
  O42      1.0000 0.09104  0.75040  0.47716  Biso   1.000  O
  O43      1.0000 0.13557  0.80717  0.47772  Biso   1.000  O
  O44      1.0000 0.42610  0.56160  0.20494  Biso   1.000  O
  O45      1.0000 0.40170  0.58470  0.17318  Biso   1.000  O
  O46      1.0000 0.44900  0.49380  0.20131  Biso   1.000  O
  O47      1.0000 0.14200  0.71270  0.45419  Biso   1.000  O
  O48      1.0000 0.11830  0.68160  0.47830  Biso   1.000  O
  O49      1.0000 0.42180  0.51840  0.24004  Biso   1.000  O
  O50      1.0000 0.42870  0.46630  0.24193  Biso   1.000  O
  O51      1.0000 0.23470  0.18550  0.45485  Biso   1.000  O
  O52      1.0000 0.20720  0.20790  0.47846  Biso   1.000  O
  C226     1.0000 0.06030  0.75990  0.46920  Biso   1.000  C
  C227     1.0000 0.05760  0.78080  0.45226  Biso   1.000  C
  C228     1.0000 0.02670  0.78910  0.44458  Biso   1.000  C
  H181     1.0000 0.02490  0.80330  0.43300  Biso   1.000  H
  C229     1.0000 0.99846  0.77640  0.45383  Biso   1.000  C
  C230     1.0000 0.00120  0.75550  0.47075  Biso   1.000  C
  H182     1.0000 0.98190  0.74690  0.47710  Biso   1.000  H
  C231     1.0000 0.03210  0.74730  0.47843  Biso   1.000  C
  C232     1.0000 0.96490  0.78440  0.44542  Biso   1.000  C
  C233     1.0000 0.96600  0.80470  0.42588  Biso   1.000  C
  H183     1.0000 0.94340  0.80900  0.42120  Biso   1.000  H
  H184     1.0000 0.97720  0.82560  0.42860  Biso   1.000  H
  H185     1.0000 0.97800  0.79250  0.41520  Biso   1.000  H
  C234     1.0000 0.94440  0.80270  0.46140  Biso   1.000  C
  H186     1.0000 0.92260  0.80770  0.45570  Biso   1.000  H
  H187     1.0000 0.94190  0.78890  0.47370  Biso   1.000  H
  H188     1.0000 0.95550  0.82330  0.46520  Biso   1.000  H
  C235     1.0000 0.94610  0.75250  0.44040  Biso   1.000  C
  H189     1.0000 0.92430  0.75810  0.43500  Biso   1.000  H
  H190     1.0000 0.95850  0.73980  0.43010  Biso   1.000  H
  H191     1.0000 0.94370  0.73940  0.45300  Biso   1.000  H
  C236     1.0000 0.12320  0.83660  0.46840  Biso   1.000  C
  C237     1.0000 0.10260  0.83473  0.45130  Biso   1.000  C
  C238     1.0000 0.08620  0.86280  0.44441  Biso   1.000  C
  H192     1.0000 0.07210  0.86150  0.43270  Biso   1.000  H
  C239     1.0000 0.09040  0.89260  0.45462  Biso   1.000  C
  C240     1.0000 0.11100  0.89440  0.47173  Biso   1.000  C
  H193     1.0000 0.11390  0.91490  0.47870  Biso   1.000  H
  C241     1.0000 0.12740  0.86640  0.47861  Biso   1.000  C
  C242     1.0000 0.07040  0.92230  0.44869  Biso   1.000  C
  C243     1.0000 0.05030  0.91700  0.42929  Biso   1.000  C
  H194     1.0000 0.03780  0.93710  0.42610  Biso   1.000  H
  H195     1.0000 0.06510  0.91190  0.41780  Biso   1.000  H
  H196     1.0000 0.03500  0.89860  0.43140  Biso   1.000  H
  C244     1.0000 0.04600  0.93110  0.46598  Biso   1.000  C
  H197     1.0000 0.03310  0.95050  0.46190  Biso   1.000  H
  H198     1.0000 0.03110  0.91240  0.46840  Biso   1.000  H
  H199     1.0000 0.05820  0.93590  0.47870  Biso   1.000  H
  C245     1.0000 0.09230  0.95240  0.44580  Biso   1.000  C
  H200     1.0000 0.07870  0.97140  0.44200  Biso   1.000  H
  H201     1.0000 0.10390  0.95710  0.45870  Biso   1.000  H
  H202     1.0000 0.10840  0.94800  0.43490  Biso   1.000  H
  C246     1.0000 0.43140  0.49440  0.18205  Biso   1.000  C
  C247     1.0000 0.41910  0.52320  0.17333  Biso   1.000  C
  C248     1.0000 0.39950  0.52170  0.15577  Biso   1.000  C
  H203     1.0000 0.39110  0.54140  0.14980  Biso   1.000  H
  C249     1.0000 0.39220  0.49130  0.14693  Biso   1.000  C
  C250     1.0000 0.40440  0.46250  0.15565  Biso   1.000  C
  H204     1.0000 0.39940  0.44170  0.14960  Biso   1.000  H
  C251     1.0000 0.42410  0.46400  0.17321  Biso   1.000  C
  C252     1.0000 0.37230  0.49000  0.12723  Biso   1.000  C
  C253     1.0000 0.33920  0.50670  0.12970  Biso   1.000  C
  H205     1.0000 0.32700  0.50540  0.11660  Biso   1.000  H
  H206     1.0000 0.32650  0.49560  0.14050  Biso   1.000  H
  H207     1.0000 0.34250  0.52990  0.13340  Biso   1.000  H
  C254     1.0000 0.39020  0.50810  0.10993  Biso   1.000  C
  H208     1.0000 0.37690  0.50700  0.09730  Biso   1.000  H
  H209     1.0000 0.39350  0.53120  0.11380  Biso   1.000  H
  H210     1.0000 0.41160  0.49760  0.10750  Biso   1.000  H
  C255     1.0000 0.36620  0.45510  0.12000  Biso   1.000  C
  H211     1.0000 0.35330  0.45540  0.10720  Biso   1.000  H
  H212     1.0000 0.38740  0.44410  0.11750  Biso   1.000  H
  H213     1.0000 0.35400  0.44300  0.13070  Biso   1.000  H
  C256     1.0000 0.13360  0.68540  0.46186  Biso   1.000  C
  C257     1.0000 0.14170  0.65540  0.44999  Biso   1.000  C
  C258     1.0000 0.15750  0.65784  0.43101  Biso   1.000  C
  H214     1.0000 0.16220  0.67890  0.42530  Biso   1.000  H
  C259     1.0000 0.16650  0.62940  0.42039  Biso   1.000  C
  H215     1.0000 0.17730  0.63110  0.40740  Biso   1.000  H
  C260     1.0000 0.15970  0.59859  0.42874  Biso   1.000  C
  C261     1.0000 0.14390  0.59614  0.44772  Biso   1.000  C
  H216     1.0000 0.13930  0.57510  0.45340  Biso   1.000  H
  C262     1.0000 0.13490  0.62450  0.45834  Biso   1.000  C
  H217     1.0000 0.12410  0.62290  0.47130  Biso   1.000  H
  C263     1.0000 0.17200  0.56790  0.41797  Biso   1.000  C
  C264     1.0000 0.17370  0.56690  0.39656  Biso   1.000  C
  H218     1.0000 0.16650  0.58530  0.38870  Biso   1.000  H
  C265     1.0000 0.18600  0.53900  0.38672  Biso   1.000  C
  H219     1.0000 0.18720  0.53840  0.37210  Biso   1.000  H
  C266     1.0000 0.19660  0.51220  0.39829  Biso   1.000  C
  C267     1.0000 0.19480  0.51320  0.41971  Biso   1.000  C
  H220     1.0000 0.20200  0.49480  0.42760  Biso   1.000  H
  C268     1.0000 0.18250  0.54100  0.42955  Biso   1.000  C
  H221     1.0000 0.18130  0.54170  0.44420  Biso   1.000  H
  C269     1.0000 0.21230  0.48308  0.38758  Biso   1.000  C
  C270     1.0000 0.23190  0.48775  0.37019  Biso   1.000  C
  H222     1.0000 0.23320  0.50890  0.36400  Biso   1.000  H
  C271     1.0000 0.24950  0.46145  0.36192  Biso   1.000  C
  C272     1.0000 0.24750  0.43047  0.37104  Biso   1.000  C
  H223     1.0000 0.25950  0.41250  0.36540  Biso   1.000  H
  C273     1.0000 0.22800  0.42579  0.38842  Biso   1.000  C
  C274     1.0000 0.21040  0.45209  0.39670  Biso   1.000  C
  H224     1.0000 0.19710  0.44890  0.40860  Biso   1.000  H
  C275     1.0000 0.27110  0.46690  0.34345  Biso   1.000  C
  C276     1.0000 0.28890  0.49610  0.34144  Biso   1.000  C
  H225     1.0000 0.28630  0.51320  0.35130  Biso   1.000  H
  C277     1.0000 0.31040  0.50020  0.32494  Biso   1.000  C
  H226     1.0000 0.32250  0.52010  0.32360  Biso   1.000  H
  C278     1.0000 0.31410  0.47520  0.31046  Biso   1.000  C
  C279     1.0000 0.29640  0.44610  0.31247  Biso   1.000  C
  H227     1.0000 0.29890  0.42900  0.30260  Biso   1.000  H
  C280     1.0000 0.27480  0.44190  0.32897  Biso   1.000  C
  H228     1.0000 0.26270  0.42200  0.33030  Biso   1.000  H
  C281     1.0000 0.33840  0.47900  0.29289  Biso   1.000  C
  C282     1.0000 0.34580  0.51020  0.28524  Biso   1.000  C
  H229     1.0000 0.33450  0.52900  0.29040  Biso   1.000  H
  C283     1.0000 0.36970  0.51390  0.27004  Biso   1.000  C
  H230     1.0000 0.37470  0.53520  0.26480  Biso   1.000  H
  C284     1.0000 0.38620  0.48640  0.26248  Biso   1.000  C
  C285     1.0000 0.37880  0.45520  0.27012  Biso   1.000  C
  H231     1.0000 0.39010  0.43640  0.26500  Biso   1.000  H
  C286     1.0000 0.35490  0.45150  0.28533  Biso   1.000  C
  H232     1.0000 0.34990  0.43020  0.29060  Biso   1.000  H
  C287     1.0000 0.41350  0.49070  0.24733  Biso   1.000  C
  C288     1.0000 0.22780  0.39308  0.39953  Biso   1.000  C
  C289     1.0000 0.22930  0.36410  0.38812  Biso   1.000  C
  H233     1.0000 0.23150  0.36500  0.37350  Biso   1.000  H
  C290     1.0000 0.22770  0.33373  0.39804  Biso   1.000  C
  H234     1.0000 0.22880  0.31390  0.39020  Biso   1.000  H
  C291     1.0000 0.22460  0.33237  0.41939  Biso   1.000  C
  C292     1.0000 0.22310  0.36140  0.43080  Biso   1.000  C
  H235     1.0000 0.22090  0.36040  0.44540  Biso   1.000  H
  C293     1.0000 0.22460  0.39172  0.42088  Biso   1.000  C
  H236     1.0000 0.22360  0.41150  0.42870  Biso   1.000  H
  C294     1.0000 0.22250  0.29921  0.43010  Biso   1.000  C
  C295     1.0000 0.23720  0.27160  0.42124  Biso   1.000  C
  H237     1.0000 0.24730  0.27320  0.40800  Biso   1.000  H
  C296     1.0000 0.23700  0.24160  0.43168  Biso   1.000  C
  H238     1.0000 0.24700  0.22280  0.42560  Biso   1.000  H
  C297     1.0000 0.22220  0.23930  0.45098  Biso   1.000  C
  C298     1.0000 0.20760  0.26690  0.45983  Biso   1.000  C
  H239     1.0000 0.19750  0.26530  0.47300  Biso   1.000  H
  C299     1.0000 0.20780  0.29690  0.44940  Biso   1.000  C
  H240     1.0000 0.19780  0.31570  0.45550  Biso   1.000  H
  C300     1.0000 0.22220  0.20770  0.46240  Biso   1.000  C
  Co9      1.0000 0.75862  0.86138  0.53306  Biso   1.000  Co
  Co10     1.0000 0.53282  0.54084  0.77840  Biso   1.000  Co
  S9       1.0000 0.79819  0.90956  0.56121  Biso   1.000  S
  S10      1.0000 0.56287  0.57464  0.81743  Biso   1.000  S
  O53      1.0000 0.77660  0.88220  0.56077  Biso   1.000  O
  O54      1.0000 0.80780  0.92070  0.58141  Biso   1.000  O
  O55      1.0000 0.75040  0.90896  0.52284  Biso   1.000  O
  O56      1.0000 0.80717  0.86443  0.52228  Biso   1.000  O
  O57      1.0000 0.56160  0.57390  0.79506  Biso   1.000  O
  O58      1.0000 0.58470  0.59830  0.82682  Biso   1.000  O
  O59      1.0000 0.49380  0.55100  0.79869  Biso   1.000  O
  O60      1.0000 0.71270  0.85800  0.54581  Biso   1.000  O
  O61      1.0000 0.68160  0.88170  0.52170  Biso   1.000  O
  O62      1.0000 0.51840  0.57820  0.75996  Biso   1.000  O
  O63      1.0000 0.46630  0.57130  0.75807  Biso   1.000  O
  O64      1.0000 0.18550  0.76530  0.54515  Biso   1.000  O
  O65      1.0000 0.20790  0.79280  0.52154  Biso   1.000  O
  C301     1.0000 0.75990  0.93970  0.53080  Biso   1.000  C
  C302     1.0000 0.78080  0.94240  0.54774  Biso   1.000  C
  C303     1.0000 0.78910  0.97330  0.55542  Biso   1.000  C
  H241     1.0000 0.80330  0.97510  0.56700  Biso   1.000  H
  C304     1.0000 0.77640  0.00154  0.54617  Biso   1.000  C
  C305     1.0000 0.75550  0.99880  0.52925  Biso   1.000  C
  H242     1.0000 0.74690  0.01810  0.52290  Biso   1.000  H
  C306     1.0000 0.74730  0.96790  0.52157  Biso   1.000  C
  C307     1.0000 0.78440  0.03510  0.55458  Biso   1.000  C
  C308     1.0000 0.80470  0.03400  0.57412  Biso   1.000  C
  H243     1.0000 0.80900  0.05660  0.57880  Biso   1.000  H
  H244     1.0000 0.82560  0.02280  0.57140  Biso   1.000  H
  H245     1.0000 0.79250  0.02200  0.58480  Biso   1.000  H
  C309     1.0000 0.80270  0.05560  0.53860  Biso   1.000  C
  H246     1.0000 0.80770  0.07740  0.54430  Biso   1.000  H
  H247     1.0000 0.78890  0.05810  0.52630  Biso   1.000  H
  H248     1.0000 0.82330  0.04450  0.53480  Biso   1.000  H
  C310     1.0000 0.75250  0.05390  0.55960  Biso   1.000  C
  H249     1.0000 0.75810  0.07570  0.56500  Biso   1.000  H
  H250     1.0000 0.73980  0.04150  0.56990  Biso   1.000  H
  H251     1.0000 0.73940  0.05630  0.54700  Biso   1.000  H
  C311     1.0000 0.83660  0.87680  0.53160  Biso   1.000  C
  C312     1.0000 0.83473  0.89740  0.54870  Biso   1.000  C
  C313     1.0000 0.86280  0.91380  0.55559  Biso   1.000  C
  H252     1.0000 0.86150  0.92790  0.56730  Biso   1.000  H
  C314     1.0000 0.89260  0.90960  0.54538  Biso   1.000  C
  C315     1.0000 0.89440  0.88900  0.52827  Biso   1.000  C
  H253     1.0000 0.91490  0.88610  0.52130  Biso   1.000  H
  C316     1.0000 0.86640  0.87260  0.52139  Biso   1.000  C
  C317     1.0000 0.92230  0.92960  0.55131  Biso   1.000  C
  C318     1.0000 0.91700  0.94970  0.57071  Biso   1.000  C
  H254     1.0000 0.93710  0.96220  0.57390  Biso   1.000  H
  H255     1.0000 0.91190  0.93490  0.58220  Biso   1.000  H
  H256     1.0000 0.89860  0.96500  0.56860  Biso   1.000  H
  C319     1.0000 0.93110  0.95400  0.53402  Biso   1.000  C
  H257     1.0000 0.95050  0.96690  0.53810  Biso   1.000  H
  H258     1.0000 0.91240  0.96890  0.53160  Biso   1.000  H
  H259     1.0000 0.93590  0.94180  0.52130  Biso   1.000  H
  C320     1.0000 0.95240  0.90770  0.55420  Biso   1.000  C
  H260     1.0000 0.97140  0.92130  0.55800  Biso   1.000  H
  H261     1.0000 0.95710  0.89610  0.54130  Biso   1.000  H
  H262     1.0000 0.94800  0.89160  0.56510  Biso   1.000  H
  C321     1.0000 0.49440  0.56860  0.81795  Biso   1.000  C
  C322     1.0000 0.52320  0.58090  0.82667  Biso   1.000  C
  C323     1.0000 0.52170  0.60050  0.84423  Biso   1.000  C
  H263     1.0000 0.54140  0.60890  0.85020  Biso   1.000  H
  C324     1.0000 0.49130  0.60780  0.85307  Biso   1.000  C
  C325     1.0000 0.46250  0.59560  0.84435  Biso   1.000  C
  H264     1.0000 0.44170  0.60060  0.85040  Biso   1.000  H
  C326     1.0000 0.46400  0.57590  0.82679  Biso   1.000  C
  C327     1.0000 0.49000  0.62770  0.87277  Biso   1.000  C
  C328     1.0000 0.50670  0.66080  0.87030  Biso   1.000  C
  H265     1.0000 0.50540  0.67300  0.88340  Biso   1.000  H
  H266     1.0000 0.49560  0.67350  0.85950  Biso   1.000  H
  H267     1.0000 0.52990  0.65750  0.86660  Biso   1.000  H
  C329     1.0000 0.50810  0.60980  0.89007  Biso   1.000  C
  H268     1.0000 0.50700  0.62310  0.90270  Biso   1.000  H
  H269     1.0000 0.53120  0.60650  0.88620  Biso   1.000  H
  H270     1.0000 0.49760  0.58840  0.89250  Biso   1.000  H
  C330     1.0000 0.45510  0.63380  0.88000  Biso   1.000  C
  H271     1.0000 0.45540  0.64670  0.89280  Biso   1.000  H
  H272     1.0000 0.44410  0.61260  0.88250  Biso   1.000  H
  H273     1.0000 0.44300  0.64600  0.86930  Biso   1.000  H
  C331     1.0000 0.68540  0.86640  0.53814  Biso   1.000  C
  C332     1.0000 0.65540  0.85830  0.55001  Biso   1.000  C
  C333     1.0000 0.65784  0.84250  0.56899  Biso   1.000  C
  H274     1.0000 0.67890  0.83780  0.57470  Biso   1.000  H
  C334     1.0000 0.62940  0.83350  0.57961  Biso   1.000  C
  H275     1.0000 0.63110  0.82270  0.59260  Biso   1.000  H
  C335     1.0000 0.59859  0.84030  0.57126  Biso   1.000  C
  C336     1.0000 0.59614  0.85610  0.55228  Biso   1.000  C
  H276     1.0000 0.57510  0.86070  0.54660  Biso   1.000  H
  C337     1.0000 0.62450  0.86510  0.54166  Biso   1.000  C
  H277     1.0000 0.62290  0.87590  0.52870  Biso   1.000  H
  C338     1.0000 0.56790  0.82800  0.58203  Biso   1.000  C
  C339     1.0000 0.56690  0.82630  0.60344  Biso   1.000  C
  H278     1.0000 0.58530  0.83350  0.61130  Biso   1.000  H
  C340     1.0000 0.53900  0.81400  0.61328  Biso   1.000  C
  H279     1.0000 0.53840  0.81280  0.62790  Biso   1.000  H
  C341     1.0000 0.51220  0.80340  0.60171  Biso   1.000  C
  C342     1.0000 0.51320  0.80520  0.58029  Biso   1.000  C
  H280     1.0000 0.49480  0.79800  0.57240  Biso   1.000  H
  C343     1.0000 0.54100  0.81750  0.57045  Biso   1.000  C
  H281     1.0000 0.54170  0.81870  0.55580  Biso   1.000  H
  C344     1.0000 0.48308  0.78770  0.61242  Biso   1.000  C
  C345     1.0000 0.48775  0.76810  0.62981  Biso   1.000  C
  H282     1.0000 0.50890  0.76680  0.63600  Biso   1.000  H
  C346     1.0000 0.46145  0.75050  0.63808  Biso   1.000  C
  C347     1.0000 0.43047  0.75250  0.62896  Biso   1.000  C
  H283     1.0000 0.41250  0.74050  0.63460  Biso   1.000  H
  C348     1.0000 0.42579  0.77200  0.61158  Biso   1.000  C
  C349     1.0000 0.45209  0.78960  0.60330  Biso   1.000  C
  H284     1.0000 0.44890  0.80290  0.59140  Biso   1.000  H
  C350     1.0000 0.46690  0.72890  0.65655  Biso   1.000  C
  C351     1.0000 0.49610  0.71110  0.65856  Biso   1.000  C
  H285     1.0000 0.51320  0.71370  0.64870  Biso   1.000  H
  C352     1.0000 0.50020  0.68960  0.67506  Biso   1.000  C
  H286     1.0000 0.52010  0.67750  0.67640  Biso   1.000  H
  C353     1.0000 0.47520  0.68590  0.68954  Biso   1.000  C
  C354     1.0000 0.44610  0.70360  0.68753  Biso   1.000  C
  H287     1.0000 0.42900  0.70110  0.69740  Biso   1.000  H
  C355     1.0000 0.44190  0.72520  0.67103  Biso   1.000  C
  H288     1.0000 0.42200  0.73730  0.66970  Biso   1.000  H
  C356     1.0000 0.47900  0.66160  0.70711  Biso   1.000  C
  C357     1.0000 0.51020  0.65420  0.71476  Biso   1.000  C
  H289     1.0000 0.52900  0.66550  0.70960  Biso   1.000  H
  C358     1.0000 0.51390  0.63030  0.72996  Biso   1.000  C
  H290     1.0000 0.53520  0.62530  0.73520  Biso   1.000  H
  C359     1.0000 0.48640  0.61380  0.73752  Biso   1.000  C
  C360     1.0000 0.45520  0.62120  0.72988  Biso   1.000  C
  H291     1.0000 0.43640  0.60990  0.73500  Biso   1.000  H
  C361     1.0000 0.45150  0.64510  0.71467  Biso   1.000  C
  H292     1.0000 0.43020  0.65010  0.70940  Biso   1.000  H
  C362     1.0000 0.49070  0.58650  0.75267  Biso   1.000  C
  C363     1.0000 0.39308  0.77220  0.60047  Biso   1.000  C
  C364     1.0000 0.36410  0.77070  0.61188  Biso   1.000  C
  H293     1.0000 0.36500  0.76850  0.62650  Biso   1.000  H
  C365     1.0000 0.33373  0.77230  0.60196  Biso   1.000  C
  H294     1.0000 0.31390  0.77120  0.60980  Biso   1.000  H
  C366     1.0000 0.33237  0.77540  0.58061  Biso   1.000  C
  C367     1.0000 0.36140  0.77690  0.56920  Biso   1.000  C
  H295     1.0000 0.36040  0.77910  0.55460  Biso   1.000  H
  C368     1.0000 0.39172  0.77540  0.57912  Biso   1.000  C
  H296     1.0000 0.41150  0.77640  0.57130  Biso   1.000  H
  C369     1.0000 0.29921  0.77750  0.56990  Biso   1.000  C
  C370     1.0000 0.27160  0.76280  0.57876  Biso   1.000  C
  H297     1.0000 0.27320  0.75270  0.59200  Biso   1.000  H
  C371     1.0000 0.24160  0.76300  0.56832  Biso   1.000  C
  H298     1.0000 0.22280  0.75300  0.57440  Biso   1.000  H
  C372     1.0000 0.23930  0.77780  0.54902  Biso   1.000  C
  C373     1.0000 0.26690  0.79240  0.54017  Biso   1.000  C
  H299     1.0000 0.26530  0.80250  0.52700  Biso   1.000  H
  C374     1.0000 0.29690  0.79220  0.55060  Biso   1.000  C
  H300     1.0000 0.31570  0.80220  0.54450  Biso   1.000  H
  C375     1.0000 0.20770  0.77780  0.53760  Biso   1.000  C
  Co11     1.0000 0.24138  0.13862  0.53306  Biso   1.000  Co
  Co12     1.0000 0.46718  0.45916  0.77840  Biso   1.000  Co
  S11      1.0000 0.20181  0.09044  0.56121  Biso   1.000  S
  S12      1.0000 0.43713  0.42536  0.81743  Biso   1.000  S
  O66      1.0000 0.22340  0.11780  0.56077  Biso   1.000  O
  O67      1.0000 0.19220  0.07930  0.58141  Biso   1.000  O
  O68      1.0000 0.24960  0.09104  0.52284  Biso   1.000  O
  O69      1.0000 0.19283  0.13557  0.52228  Biso   1.000  O
  O70      1.0000 0.43840  0.42610  0.79506  Biso   1.000  O
  O71      1.0000 0.41530  0.40170  0.82682  Biso   1.000  O
  O72      1.0000 0.50620  0.44900  0.79869  Biso   1.000  O
  O73      1.0000 0.28730  0.14200  0.54581  Biso   1.000  O
  O74      1.0000 0.31840  0.11830  0.52170  Biso   1.000  O
  O75      1.0000 0.48160  0.42180  0.75996  Biso   1.000  O
  O76      1.0000 0.53370  0.42870  0.75807  Biso   1.000  O
  O77      1.0000 0.81450  0.23470  0.54515  Biso   1.000  O
  O78      1.0000 0.79210  0.20720  0.52154  Biso   1.000  O
  C376     1.0000 0.24010  0.06030  0.53080  Biso   1.000  C
  C377     1.0000 0.21920  0.05760  0.54774  Biso   1.000  C
  C378     1.0000 0.21090  0.02670  0.55542  Biso   1.000  C
  H301     1.0000 0.19670  0.02490  0.56700  Biso   1.000  H
  C379     1.0000 0.22360  0.99846  0.54617  Biso   1.000  C
  C380     1.0000 0.24450  0.00120  0.52925  Biso   1.000  C
  H302     1.0000 0.25310  0.98190  0.52290  Biso   1.000  H
  C381     1.0000 0.25270  0.03210  0.52157  Biso   1.000  C
  C382     1.0000 0.21560  0.96490  0.55458  Biso   1.000  C
  C383     1.0000 0.19530  0.96600  0.57412  Biso   1.000  C
  H303     1.0000 0.19100  0.94340  0.57880  Biso   1.000  H
  H304     1.0000 0.17440  0.97720  0.57140  Biso   1.000  H
  H305     1.0000 0.20750  0.97800  0.58480  Biso   1.000  H
  C384     1.0000 0.19730  0.94440  0.53860  Biso   1.000  C
  H306     1.0000 0.19230  0.92260  0.54430  Biso   1.000  H
  H307     1.0000 0.21110  0.94190  0.52630  Biso   1.000  H
  H308     1.0000 0.17670  0.95550  0.53480  Biso   1.000  H
  C385     1.0000 0.24750  0.94610  0.55960  Biso   1.000  C
  H309     1.0000 0.24190  0.92430  0.56500  Biso   1.000  H
  H310     1.0000 0.26020  0.95850  0.56990  Biso   1.000  H
  H311     1.0000 0.26060  0.94370  0.54700  Biso   1.000  H
  C386     1.0000 0.16340  0.12320  0.53160  Biso   1.000  C
  C387     1.0000 0.16527  0.10260  0.54870  Biso   1.000  C
  C388     1.0000 0.13720  0.08620  0.55559  Biso   1.000  C
  H312     1.0000 0.13850  0.07210  0.56730  Biso   1.000  H
  C389     1.0000 0.10740  0.09040  0.54538  Biso   1.000  C
  C390     1.0000 0.10560  0.11100  0.52827  Biso   1.000  C
  H313     1.0000 0.08510  0.11390  0.52130  Biso   1.000  H
  C391     1.0000 0.13360  0.12740  0.52139  Biso   1.000  C
  C392     1.0000 0.07770  0.07040  0.55131  Biso   1.000  C
  C393     1.0000 0.08300  0.05030  0.57071  Biso   1.000  C
  H314     1.0000 0.06290  0.03780  0.57390  Biso   1.000  H
  H315     1.0000 0.08810  0.06510  0.58220  Biso   1.000  H
  H316     1.0000 0.10140  0.03500  0.56860  Biso   1.000  H
  C394     1.0000 0.06890  0.04600  0.53402  Biso   1.000  C
  H317     1.0000 0.04950  0.03310  0.53810  Biso   1.000  H
  H318     1.0000 0.08760  0.03110  0.53160  Biso   1.000  H
  H319     1.0000 0.06410  0.05820  0.52130  Biso   1.000  H
  C395     1.0000 0.04760  0.09230  0.55420  Biso   1.000  C
  H320     1.0000 0.02860  0.07870  0.55800  Biso   1.000  H
  H321     1.0000 0.04290  0.10390  0.54130  Biso   1.000  H
  H322     1.0000 0.05200  0.10840  0.56510  Biso   1.000  H
  C396     1.0000 0.50560  0.43140  0.81795  Biso   1.000  C
  C397     1.0000 0.47680  0.41910  0.82667  Biso   1.000  C
  C398     1.0000 0.47830  0.39950  0.84423  Biso   1.000  C
  H323     1.0000 0.45860  0.39110  0.85020  Biso   1.000  H
  C399     1.0000 0.50870  0.39220  0.85307  Biso   1.000  C
  C400     1.0000 0.53750  0.40440  0.84435  Biso   1.000  C
  H324     1.0000 0.55830  0.39940  0.85040  Biso   1.000  H
  C401     1.0000 0.53600  0.42410  0.82679  Biso   1.000  C
  C402     1.0000 0.51000  0.37230  0.87277  Biso   1.000  C
  C403     1.0000 0.49330  0.33920  0.87030  Biso   1.000  C
  H325     1.0000 0.49460  0.32700  0.88340  Biso   1.000  H
  H326     1.0000 0.50440  0.32650  0.85950  Biso   1.000  H
  H327     1.0000 0.47010  0.34250  0.86660  Biso   1.000  H
  C404     1.0000 0.49190  0.39020  0.89007  Biso   1.000  C
  H328     1.0000 0.49300  0.37690  0.90270  Biso   1.000  H
  H329     1.0000 0.46880  0.39350  0.88620  Biso   1.000  H
  H330     1.0000 0.50240  0.41160  0.89250  Biso   1.000  H
  C405     1.0000 0.54490  0.36620  0.88000  Biso   1.000  C
  H331     1.0000 0.54460  0.35330  0.89280  Biso   1.000  H
  H332     1.0000 0.55590  0.38740  0.88250  Biso   1.000  H
  H333     1.0000 0.55700  0.35400  0.86930  Biso   1.000  H
  C406     1.0000 0.31460  0.13360  0.53814  Biso   1.000  C
  C407     1.0000 0.34460  0.14170  0.55001  Biso   1.000  C
  C408     1.0000 0.34216  0.15750  0.56899  Biso   1.000  C
  H334     1.0000 0.32110  0.16220  0.57470  Biso   1.000  H
  C409     1.0000 0.37060  0.16650  0.57961  Biso   1.000  C
  H335     1.0000 0.36890  0.17730  0.59260  Biso   1.000  H
  C410     1.0000 0.40141  0.15970  0.57126  Biso   1.000  C
  C411     1.0000 0.40386  0.14390  0.55228  Biso   1.000  C
  H336     1.0000 0.42490  0.13930  0.54660  Biso   1.000  H
  C412     1.0000 0.37550  0.13490  0.54166  Biso   1.000  C
  H337     1.0000 0.37710  0.12410  0.52870  Biso   1.000  H
  C413     1.0000 0.43210  0.17200  0.58203  Biso   1.000  C
  C414     1.0000 0.43310  0.17370  0.60344  Biso   1.000  C
  H338     1.0000 0.41470  0.16650  0.61130  Biso   1.000  H
  C415     1.0000 0.46100  0.18600  0.61328  Biso   1.000  C
  H339     1.0000 0.46160  0.18720  0.62790  Biso   1.000  H
  C416     1.0000 0.48780  0.19660  0.60171  Biso   1.000  C
  C417     1.0000 0.48680  0.19480  0.58029  Biso   1.000  C
  H340     1.0000 0.50520  0.20200  0.57240  Biso   1.000  H
  C418     1.0000 0.45900  0.18250  0.57045  Biso   1.000  C
  H341     1.0000 0.45830  0.18130  0.55580  Biso   1.000  H
  C419     1.0000 0.51692  0.21230  0.61242  Biso   1.000  C
  C420     1.0000 0.51225  0.23190  0.62981  Biso   1.000  C
  H342     1.0000 0.49110  0.23320  0.63600  Biso   1.000  H
  C421     1.0000 0.53855  0.24950  0.63808  Biso   1.000  C
  C422     1.0000 0.56953  0.24750  0.62896  Biso   1.000  C
  H343     1.0000 0.58750  0.25950  0.63460  Biso   1.000  H
  C423     1.0000 0.57421  0.22800  0.61158  Biso   1.000  C
  C424     1.0000 0.54791  0.21040  0.60330  Biso   1.000  C
  H344     1.0000 0.55110  0.19710  0.59140  Biso   1.000  H
  C425     1.0000 0.53310  0.27110  0.65655  Biso   1.000  C
  C426     1.0000 0.50390  0.28890  0.65856  Biso   1.000  C
  H345     1.0000 0.48680  0.28630  0.64870  Biso   1.000  H
  C427     1.0000 0.49980  0.31040  0.67506  Biso   1.000  C
  H346     1.0000 0.47990  0.32250  0.67640  Biso   1.000  H
  C428     1.0000 0.52480  0.31410  0.68954  Biso   1.000  C
  C429     1.0000 0.55390  0.29640  0.68753  Biso   1.000  C
  H347     1.0000 0.57100  0.29890  0.69740  Biso   1.000  H
  C430     1.0000 0.55810  0.27480  0.67103  Biso   1.000  C
  H348     1.0000 0.57800  0.26270  0.66970  Biso   1.000  H
  C431     1.0000 0.52100  0.33840  0.70711  Biso   1.000  C
  C432     1.0000 0.48980  0.34580  0.71476  Biso   1.000  C
  H349     1.0000 0.47100  0.33450  0.70960  Biso   1.000  H
  C433     1.0000 0.48610  0.36970  0.72996  Biso   1.000  C
  H350     1.0000 0.46480  0.37470  0.73520  Biso   1.000  H
  C434     1.0000 0.51360  0.38620  0.73752  Biso   1.000  C
  C435     1.0000 0.54480  0.37880  0.72988  Biso   1.000  C
  H351     1.0000 0.56360  0.39010  0.73500  Biso   1.000  H
  C436     1.0000 0.54850  0.35490  0.71467  Biso   1.000  C
  H352     1.0000 0.56980  0.34990  0.70940  Biso   1.000  H
  C437     1.0000 0.50930  0.41350  0.75267  Biso   1.000  C
  C438     1.0000 0.60692  0.22780  0.60047  Biso   1.000  C
  C439     1.0000 0.63590  0.22930  0.61188  Biso   1.000  C
  H353     1.0000 0.63500  0.23150  0.62650  Biso   1.000  H
  C440     1.0000 0.66627  0.22770  0.60196  Biso   1.000  C
  H354     1.0000 0.68610  0.22880  0.60980  Biso   1.000  H
  C441     1.0000 0.66763  0.22460  0.58061  Biso   1.000  C
  C442     1.0000 0.63860  0.22310  0.56920  Biso   1.000  C
  H355     1.0000 0.63960  0.22090  0.55460  Biso   1.000  H
  C443     1.0000 0.60828  0.22460  0.57912  Biso   1.000  C
  H356     1.0000 0.58850  0.22360  0.57130  Biso   1.000  H
  C444     1.0000 0.70079  0.22250  0.56990  Biso   1.000  C
  C445     1.0000 0.72840  0.23720  0.57876  Biso   1.000  C
  H357     1.0000 0.72680  0.24730  0.59200  Biso   1.000  H
  C446     1.0000 0.75840  0.23700  0.56832  Biso   1.000  C
  H358     1.0000 0.77720  0.24700  0.57440  Biso   1.000  H
  C447     1.0000 0.76070  0.22220  0.54902  Biso   1.000  C
  C448     1.0000 0.73310  0.20760  0.54017  Biso   1.000  C
  H359     1.0000 0.73470  0.19750  0.52700  Biso   1.000  H
  C449     1.0000 0.70310  0.20780  0.55060  Biso   1.000  C
  H360     1.0000 0.68430  0.19780  0.54450  Biso   1.000  H
  C450     1.0000 0.79230  0.22220  0.53760  Biso   1.000  C
  Co13     1.0000 0.13862  0.75862  0.53306  Biso   1.000  Co
  Co14     1.0000 0.45916  0.53282  0.77840  Biso   1.000  Co
  S13      1.0000 0.09044  0.79819  0.56121  Biso   1.000  S
  S14      1.0000 0.42536  0.56287  0.81743  Biso   1.000  S
  O79      1.0000 0.11780  0.77660  0.56077  Biso   1.000  O
  O80      1.0000 0.07930  0.80780  0.58141  Biso   1.000  O
  O81      1.0000 0.09104  0.75040  0.52284  Biso   1.000  O
  O82      1.0000 0.13557  0.80717  0.52228  Biso   1.000  O
  O83      1.0000 0.42610  0.56160  0.79506  Biso   1.000  O
  O84      1.0000 0.40170  0.58470  0.82682  Biso   1.000  O
  O85      1.0000 0.44900  0.49380  0.79869  Biso   1.000  O
  O86      1.0000 0.14200  0.71270  0.54581  Biso   1.000  O
  O87      1.0000 0.11830  0.68160  0.52170  Biso   1.000  O
  O88      1.0000 0.42180  0.51840  0.75996  Biso   1.000  O
  O89      1.0000 0.42870  0.46630  0.75807  Biso   1.000  O
  O90      1.0000 0.23470  0.18550  0.54515  Biso   1.000  O
  O91      1.0000 0.20720  0.20790  0.52154  Biso   1.000  O
  C451     1.0000 0.06030  0.75990  0.53080  Biso   1.000  C
  C452     1.0000 0.05760  0.78080  0.54774  Biso   1.000  C
  C453     1.0000 0.02670  0.78910  0.55542  Biso   1.000  C
  H361     1.0000 0.02490  0.80330  0.56700  Biso   1.000  H
  C454     1.0000 0.99846  0.77640  0.54617  Biso   1.000  C
  C455     1.0000 0.00120  0.75550  0.52925  Biso   1.000  C
  H362     1.0000 0.98190  0.74690  0.52290  Biso   1.000  H
  C456     1.0000 0.03210  0.74730  0.52157  Biso   1.000  C
  C457     1.0000 0.96490  0.78440  0.55458  Biso   1.000  C
  C458     1.0000 0.96600  0.80470  0.57412  Biso   1.000  C
  H363     1.0000 0.94340  0.80900  0.57880  Biso   1.000  H
  H364     1.0000 0.97720  0.82560  0.57140  Biso   1.000  H
  H365     1.0000 0.97800  0.79250  0.58480  Biso   1.000  H
  C459     1.0000 0.94440  0.80270  0.53860  Biso   1.000  C
  H366     1.0000 0.92260  0.80770  0.54430  Biso   1.000  H
  H367     1.0000 0.94190  0.78890  0.52630  Biso   1.000  H
  H368     1.0000 0.95550  0.82330  0.53480  Biso   1.000  H
  C460     1.0000 0.94610  0.75250  0.55960  Biso   1.000  C
  H369     1.0000 0.92430  0.75810  0.56500  Biso   1.000  H
  H370     1.0000 0.95850  0.73980  0.56990  Biso   1.000  H
  H371     1.0000 0.94370  0.73940  0.54700  Biso   1.000  H
  C461     1.0000 0.12320  0.83660  0.53160  Biso   1.000  C
  C462     1.0000 0.10260  0.83473  0.54870  Biso   1.000  C
  C463     1.0000 0.08620  0.86280  0.55559  Biso   1.000  C
  H372     1.0000 0.07210  0.86150  0.56730  Biso   1.000  H
  C464     1.0000 0.09040  0.89260  0.54538  Biso   1.000  C
  C465     1.0000 0.11100  0.89440  0.52827  Biso   1.000  C
  H373     1.0000 0.11390  0.91490  0.52130  Biso   1.000  H
  C466     1.0000 0.12740  0.86640  0.52139  Biso   1.000  C
  C467     1.0000 0.07040  0.92230  0.55131  Biso   1.000  C
  C468     1.0000 0.05030  0.91700  0.57071  Biso   1.000  C
  H374     1.0000 0.03780  0.93710  0.57390  Biso   1.000  H
  H375     1.0000 0.06510  0.91190  0.58220  Biso   1.000  H
  H376     1.0000 0.03500  0.89860  0.56860  Biso   1.000  H
  C469     1.0000 0.04600  0.93110  0.53402  Biso   1.000  C
  H377     1.0000 0.03310  0.95050  0.53810  Biso   1.000  H
  H378     1.0000 0.03110  0.91240  0.53160  Biso   1.000  H
  H379     1.0000 0.05820  0.93590  0.52130  Biso   1.000  H
  C470     1.0000 0.09230  0.95240  0.55420  Biso   1.000  C
  H380     1.0000 0.07870  0.97140  0.55800  Biso   1.000  H
  H381     1.0000 0.10390  0.95710  0.54130  Biso   1.000  H
  H382     1.0000 0.10840  0.94800  0.56510  Biso   1.000  H
  C471     1.0000 0.43140  0.49440  0.81795  Biso   1.000  C
  C472     1.0000 0.41910  0.52320  0.82667  Biso   1.000  C
  C473     1.0000 0.39950  0.52170  0.84423  Biso   1.000  C
  H383     1.0000 0.39110  0.54140  0.85020  Biso   1.000  H
  C474     1.0000 0.39220  0.49130  0.85307  Biso   1.000  C
  C475     1.0000 0.40440  0.46250  0.84435  Biso   1.000  C
  H384     1.0000 0.39940  0.44170  0.85040  Biso   1.000  H
  C476     1.0000 0.42410  0.46400  0.82679  Biso   1.000  C
  C477     1.0000 0.37230  0.49000  0.87277  Biso   1.000  C
  C478     1.0000 0.33920  0.50670  0.87030  Biso   1.000  C
  H385     1.0000 0.32700  0.50540  0.88340  Biso   1.000  H
  H386     1.0000 0.32650  0.49560  0.85950  Biso   1.000  H
  H387     1.0000 0.34250  0.52990  0.86660  Biso   1.000  H
  C479     1.0000 0.39020  0.50810  0.89007  Biso   1.000  C
  H388     1.0000 0.37690  0.50700  0.90270  Biso   1.000  H
  H389     1.0000 0.39350  0.53120  0.88620  Biso   1.000  H
  H390     1.0000 0.41160  0.49760  0.89250  Biso   1.000  H
  C480     1.0000 0.36620  0.45510  0.88000  Biso   1.000  C
  H391     1.0000 0.35330  0.45540  0.89280  Biso   1.000  H
  H392     1.0000 0.38740  0.44410  0.88250  Biso   1.000  H
  H393     1.0000 0.35400  0.44300  0.86930  Biso   1.000  H
  C481     1.0000 0.13360  0.68540  0.53814  Biso   1.000  C
  C482     1.0000 0.14170  0.65540  0.55001  Biso   1.000  C
  C483     1.0000 0.15750  0.65784  0.56899  Biso   1.000  C
  H394     1.0000 0.16220  0.67890  0.57470  Biso   1.000  H
  C484     1.0000 0.16650  0.62940  0.57961  Biso   1.000  C
  H395     1.0000 0.17730  0.63110  0.59260  Biso   1.000  H
  C485     1.0000 0.15970  0.59859  0.57126  Biso   1.000  C
  C486     1.0000 0.14390  0.59614  0.55228  Biso   1.000  C
  H396     1.0000 0.13930  0.57510  0.54660  Biso   1.000  H
  C487     1.0000 0.13490  0.62450  0.54166  Biso   1.000  C
  H397     1.0000 0.12410  0.62290  0.52870  Biso   1.000  H
  C488     1.0000 0.17200  0.56790  0.58203  Biso   1.000  C
  C489     1.0000 0.17370  0.56690  0.60344  Biso   1.000  C
  H398     1.0000 0.16650  0.58530  0.61130  Biso   1.000  H
  C490     1.0000 0.18600  0.53900  0.61328  Biso   1.000  C
  H399     1.0000 0.18720  0.53840  0.62790  Biso   1.000  H
  C491     1.0000 0.19660  0.51220  0.60171  Biso   1.000  C
  C492     1.0000 0.19480  0.51320  0.58029  Biso   1.000  C
  H400     1.0000 0.20200  0.49480  0.57240  Biso   1.000  H
  C493     1.0000 0.18250  0.54100  0.57045  Biso   1.000  C
  H401     1.0000 0.18130  0.54170  0.55580  Biso   1.000  H
  C494     1.0000 0.21230  0.48308  0.61242  Biso   1.000  C
  C495     1.0000 0.23190  0.48775  0.62981  Biso   1.000  C
  H402     1.0000 0.23320  0.50890  0.63600  Biso   1.000  H
  C496     1.0000 0.24950  0.46145  0.63808  Biso   1.000  C
  C497     1.0000 0.24750  0.43047  0.62896  Biso   1.000  C
  H403     1.0000 0.25950  0.41250  0.63460  Biso   1.000  H
  C498     1.0000 0.22800  0.42579  0.61158  Biso   1.000  C
  C499     1.0000 0.21040  0.45209  0.60330  Biso   1.000  C
  H404     1.0000 0.19710  0.44890  0.59140  Biso   1.000  H
  C500     1.0000 0.27110  0.46690  0.65655  Biso   1.000  C
  C501     1.0000 0.28890  0.49610  0.65856  Biso   1.000  C
  H405     1.0000 0.28630  0.51320  0.64870  Biso   1.000  H
  C502     1.0000 0.31040  0.50020  0.67506  Biso   1.000  C
  H406     1.0000 0.32250  0.52010  0.67640  Biso   1.000  H
  C503     1.0000 0.31410  0.47520  0.68954  Biso   1.000  C
  C504     1.0000 0.29640  0.44610  0.68753  Biso   1.000  C
  H407     1.0000 0.29890  0.42900  0.69740  Biso   1.000  H
  C505     1.0000 0.27480  0.44190  0.67103  Biso   1.000  C
  H408     1.0000 0.26270  0.42200  0.66970  Biso   1.000  H
  C506     1.0000 0.33840  0.47900  0.70711  Biso   1.000  C
  C507     1.0000 0.34580  0.51020  0.71476  Biso   1.000  C
  H409     1.0000 0.33450  0.52900  0.70960  Biso   1.000  H
  C508     1.0000 0.36970  0.51390  0.72996  Biso   1.000  C
  H410     1.0000 0.37470  0.53520  0.73520  Biso   1.000  H
  C509     1.0000 0.38620  0.48640  0.73752  Biso   1.000  C
  C510     1.0000 0.37880  0.45520  0.72988  Biso   1.000  C
  H411     1.0000 0.39010  0.43640  0.73500  Biso   1.000  H
  C511     1.0000 0.35490  0.45150  0.71467  Biso   1.000  C
  H412     1.0000 0.34990  0.43020  0.70940  Biso   1.000  H
  C512     1.0000 0.41350  0.49070  0.75267  Biso   1.000  C
  C513     1.0000 0.22780  0.39308  0.60047  Biso   1.000  C
  C514     1.0000 0.22930  0.36410  0.61188  Biso   1.000  C
  H413     1.0000 0.23150  0.36500  0.62650  Biso   1.000  H
  C515     1.0000 0.22770  0.33373  0.60196  Biso   1.000  C
  H414     1.0000 0.22880  0.31390  0.60980  Biso   1.000  H
  C516     1.0000 0.22460  0.33237  0.58061  Biso   1.000  C
  C517     1.0000 0.22310  0.36140  0.56920  Biso   1.000  C
  H415     1.0000 0.22090  0.36040  0.55460  Biso   1.000  H
  C518     1.0000 0.22460  0.39172  0.57912  Biso   1.000  C
  H416     1.0000 0.22360  0.41150  0.57130  Biso   1.000  H
  C519     1.0000 0.22250  0.29921  0.56990  Biso   1.000  C
  C520     1.0000 0.23720  0.27160  0.57876  Biso   1.000  C
  H417     1.0000 0.24730  0.27320  0.59200  Biso   1.000  H
  C521     1.0000 0.23700  0.24160  0.56832  Biso   1.000  C
  H418     1.0000 0.24700  0.22280  0.57440  Biso   1.000  H
  C522     1.0000 0.22220  0.23930  0.54902  Biso   1.000  C
  C523     1.0000 0.20760  0.26690  0.54017  Biso   1.000  C
  H419     1.0000 0.19750  0.26530  0.52700  Biso   1.000  H
  C524     1.0000 0.20780  0.29690  0.55060  Biso   1.000  C
  H420     1.0000 0.19780  0.31570  0.54450  Biso   1.000  H
  C525     1.0000 0.22220  0.20770  0.53760  Biso   1.000  C
  Co15     1.0000 0.86138  0.24138  0.53306  Biso   1.000  Co
  Co16     1.0000 0.54084  0.46718  0.77840  Biso   1.000  Co
  S15      1.0000 0.90956  0.20181  0.56121  Biso   1.000  S
  S16      1.0000 0.57464  0.43713  0.81743  Biso   1.000  S
  O92      1.0000 0.88220  0.22340  0.56077  Biso   1.000  O
  O93      1.0000 0.92070  0.19220  0.58141  Biso   1.000  O
  O94      1.0000 0.90896  0.24960  0.52284  Biso   1.000  O
  O95      1.0000 0.86443  0.19283  0.52228  Biso   1.000  O
  O96      1.0000 0.57390  0.43840  0.79506  Biso   1.000  O
  O97      1.0000 0.59830  0.41530  0.82682  Biso   1.000  O
  O98      1.0000 0.55100  0.50620  0.79869  Biso   1.000  O
  O99      1.0000 0.85800  0.28730  0.54581  Biso   1.000  O
  O100     1.0000 0.88170  0.31840  0.52170  Biso   1.000  O
  O101     1.0000 0.57820  0.48160  0.75996  Biso   1.000  O
  O102     1.0000 0.57130  0.53370  0.75807  Biso   1.000  O
  O103     1.0000 0.76530  0.81450  0.54515  Biso   1.000  O
  O104     1.0000 0.79280  0.79210  0.52154  Biso   1.000  O
  C526     1.0000 0.93970  0.24010  0.53080  Biso   1.000  C
  C527     1.0000 0.94240  0.21920  0.54774  Biso   1.000  C
  C528     1.0000 0.97330  0.21090  0.55542  Biso   1.000  C
  H421     1.0000 0.97510  0.19670  0.56700  Biso   1.000  H
  C529     1.0000 0.00154  0.22360  0.54617  Biso   1.000  C
  C530     1.0000 0.99880  0.24450  0.52925  Biso   1.000  C
  H422     1.0000 0.01810  0.25310  0.52290  Biso   1.000  H
  C531     1.0000 0.96790  0.25270  0.52157  Biso   1.000  C
  C532     1.0000 0.03510  0.21560  0.55458  Biso   1.000  C
  C533     1.0000 0.03400  0.19530  0.57412  Biso   1.000  C
  H423     1.0000 0.05660  0.19100  0.57880  Biso   1.000  H
  H424     1.0000 0.02280  0.17440  0.57140  Biso   1.000  H
  H425     1.0000 0.02200  0.20750  0.58480  Biso   1.000  H
  C534     1.0000 0.05560  0.19730  0.53860  Biso   1.000  C
  H426     1.0000 0.07740  0.19230  0.54430  Biso   1.000  H
  H427     1.0000 0.05810  0.21110  0.52630  Biso   1.000  H
  H428     1.0000 0.04450  0.17670  0.53480  Biso   1.000  H
  C535     1.0000 0.05390  0.24750  0.55960  Biso   1.000  C
  H429     1.0000 0.07570  0.24190  0.56500  Biso   1.000  H
  H430     1.0000 0.04150  0.26020  0.56990  Biso   1.000  H
  H431     1.0000 0.05630  0.26060  0.54700  Biso   1.000  H
  C536     1.0000 0.87680  0.16340  0.53160  Biso   1.000  C
  C537     1.0000 0.89740  0.16527  0.54870  Biso   1.000  C
  C538     1.0000 0.91380  0.13720  0.55559  Biso   1.000  C
  H432     1.0000 0.92790  0.13850  0.56730  Biso   1.000  H
  C539     1.0000 0.90960  0.10740  0.54538  Biso   1.000  C
  C540     1.0000 0.88900  0.10560  0.52827  Biso   1.000  C
  H433     1.0000 0.88610  0.08510  0.52130  Biso   1.000  H
  C541     1.0000 0.87260  0.13360  0.52139  Biso   1.000  C
  C542     1.0000 0.92960  0.07770  0.55131  Biso   1.000  C
  C543     1.0000 0.94970  0.08300  0.57071  Biso   1.000  C
  H434     1.0000 0.96220  0.06290  0.57390  Biso   1.000  H
  H435     1.0000 0.93490  0.08810  0.58220  Biso   1.000  H
  H436     1.0000 0.96500  0.10140  0.56860  Biso   1.000  H
  C544     1.0000 0.95400  0.06890  0.53402  Biso   1.000  C
  H437     1.0000 0.96690  0.04950  0.53810  Biso   1.000  H
  H438     1.0000 0.96890  0.08760  0.53160  Biso   1.000  H
  H439     1.0000 0.94180  0.06410  0.52130  Biso   1.000  H
  C545     1.0000 0.90770  0.04760  0.55420  Biso   1.000  C
  H440     1.0000 0.92130  0.02860  0.55800  Biso   1.000  H
  H441     1.0000 0.89610  0.04290  0.54130  Biso   1.000  H
  H442     1.0000 0.89160  0.05200  0.56510  Biso   1.000  H
  C546     1.0000 0.56860  0.50560  0.81795  Biso   1.000  C
  C547     1.0000 0.58090  0.47680  0.82667  Biso   1.000  C
  C548     1.0000 0.60050  0.47830  0.84423  Biso   1.000  C
  H443     1.0000 0.60890  0.45860  0.85020  Biso   1.000  H
  C549     1.0000 0.60780  0.50870  0.85307  Biso   1.000  C
  C550     1.0000 0.59560  0.53750  0.84435  Biso   1.000  C
  H444     1.0000 0.60060  0.55830  0.85040  Biso   1.000  H
  C551     1.0000 0.57590  0.53600  0.82679  Biso   1.000  C
  C552     1.0000 0.62770  0.51000  0.87277  Biso   1.000  C
  C553     1.0000 0.66080  0.49330  0.87030  Biso   1.000  C
  H445     1.0000 0.67300  0.49460  0.88340  Biso   1.000  H
  H446     1.0000 0.67350  0.50440  0.85950  Biso   1.000  H
  H447     1.0000 0.65750  0.47010  0.86660  Biso   1.000  H
  C554     1.0000 0.60980  0.49190  0.89007  Biso   1.000  C
  H448     1.0000 0.62310  0.49300  0.90270  Biso   1.000  H
  H449     1.0000 0.60650  0.46880  0.88620  Biso   1.000  H
  H450     1.0000 0.58840  0.50240  0.89250  Biso   1.000  H
  C555     1.0000 0.63380  0.54490  0.88000  Biso   1.000  C
  H451     1.0000 0.64670  0.54460  0.89280  Biso   1.000  H
  H452     1.0000 0.61260  0.55590  0.88250  Biso   1.000  H
  H453     1.0000 0.64600  0.55700  0.86930  Biso   1.000  H
  C556     1.0000 0.86640  0.31460  0.53814  Biso   1.000  C
  C557     1.0000 0.85830  0.34460  0.55001  Biso   1.000  C
  C558     1.0000 0.84250  0.34216  0.56899  Biso   1.000  C
  H454     1.0000 0.83780  0.32110  0.57470  Biso   1.000  H
  C559     1.0000 0.83350  0.37060  0.57961  Biso   1.000  C
  H455     1.0000 0.82270  0.36890  0.59260  Biso   1.000  H
  C560     1.0000 0.84030  0.40141  0.57126  Biso   1.000  C
  C561     1.0000 0.85610  0.40386  0.55228  Biso   1.000  C
  H456     1.0000 0.86070  0.42490  0.54660  Biso   1.000  H
  C562     1.0000 0.86510  0.37550  0.54166  Biso   1.000  C
  H457     1.0000 0.87590  0.37710  0.52870  Biso   1.000  H
  C563     1.0000 0.82800  0.43210  0.58203  Biso   1.000  C
  C564     1.0000 0.82630  0.43310  0.60344  Biso   1.000  C
  H458     1.0000 0.83350  0.41470  0.61130  Biso   1.000  H
  C565     1.0000 0.81400  0.46100  0.61328  Biso   1.000  C
  H459     1.0000 0.81280  0.46160  0.62790  Biso   1.000  H
  C566     1.0000 0.80340  0.48780  0.60171  Biso   1.000  C
  C567     1.0000 0.80520  0.48680  0.58029  Biso   1.000  C
  H460     1.0000 0.79800  0.50520  0.57240  Biso   1.000  H
  C568     1.0000 0.81750  0.45900  0.57045  Biso   1.000  C
  H461     1.0000 0.81870  0.45830  0.55580  Biso   1.000  H
  C569     1.0000 0.78770  0.51692  0.61242  Biso   1.000  C
  C570     1.0000 0.76810  0.51225  0.62981  Biso   1.000  C
  H462     1.0000 0.76680  0.49110  0.63600  Biso   1.000  H
  C571     1.0000 0.75050  0.53855  0.63808  Biso   1.000  C
  C572     1.0000 0.75250  0.56953  0.62896  Biso   1.000  C
  H463     1.0000 0.74050  0.58750  0.63460  Biso   1.000  H
  C573     1.0000 0.77200  0.57421  0.61158  Biso   1.000  C
  C574     1.0000 0.78960  0.54791  0.60330  Biso   1.000  C
  H464     1.0000 0.80290  0.55110  0.59140  Biso   1.000  H
  C575     1.0000 0.72890  0.53310  0.65655  Biso   1.000  C
  C576     1.0000 0.71110  0.50390  0.65856  Biso   1.000  C
  H465     1.0000 0.71370  0.48680  0.64870  Biso   1.000  H
  C577     1.0000 0.68960  0.49980  0.67506  Biso   1.000  C
  H466     1.0000 0.67750  0.47990  0.67640  Biso   1.000  H
  C578     1.0000 0.68590  0.52480  0.68954  Biso   1.000  C
  C579     1.0000 0.70360  0.55390  0.68753  Biso   1.000  C
  H467     1.0000 0.70110  0.57100  0.69740  Biso   1.000  H
  C580     1.0000 0.72520  0.55810  0.67103  Biso   1.000  C
  H468     1.0000 0.73730  0.57800  0.66970  Biso   1.000  H
  C581     1.0000 0.66160  0.52100  0.70711  Biso   1.000  C
  C582     1.0000 0.65420  0.48980  0.71476  Biso   1.000  C
  H469     1.0000 0.66550  0.47100  0.70960  Biso   1.000  H
  C583     1.0000 0.63030  0.48610  0.72996  Biso   1.000  C
  H470     1.0000 0.62530  0.46480  0.73520  Biso   1.000  H
  C584     1.0000 0.61380  0.51360  0.73752  Biso   1.000  C
  C585     1.0000 0.62120  0.54480  0.72988  Biso   1.000  C
  H471     1.0000 0.60990  0.56360  0.73500  Biso   1.000  H
  C586     1.0000 0.64510  0.54850  0.71467  Biso   1.000  C
  H472     1.0000 0.65010  0.56980  0.70940  Biso   1.000  H
  C587     1.0000 0.58650  0.50930  0.75267  Biso   1.000  C
  C588     1.0000 0.77220  0.60692  0.60047  Biso   1.000  C
  C589     1.0000 0.77070  0.63590  0.61188  Biso   1.000  C
  H473     1.0000 0.76850  0.63500  0.62650  Biso   1.000  H
  C590     1.0000 0.77230  0.66627  0.60196  Biso   1.000  C
  H474     1.0000 0.77120  0.68610  0.60980  Biso   1.000  H
  C591     1.0000 0.77540  0.66763  0.58061  Biso   1.000  C
  C592     1.0000 0.77690  0.63860  0.56920  Biso   1.000  C
  H475     1.0000 0.77910  0.63960  0.55460  Biso   1.000  H
  C593     1.0000 0.77540  0.60828  0.57912  Biso   1.000  C
  H476     1.0000 0.77640  0.58850  0.57130  Biso   1.000  H
  C594     1.0000 0.77750  0.70079  0.56990  Biso   1.000  C
  C595     1.0000 0.76280  0.72840  0.57876  Biso   1.000  C
  H477     1.0000 0.75270  0.72680  0.59200  Biso   1.000  H
  C596     1.0000 0.76300  0.75840  0.56832  Biso   1.000  C
  H478     1.0000 0.75300  0.77720  0.57440  Biso   1.000  H
  C597     1.0000 0.77780  0.76070  0.54902  Biso   1.000  C
  C598     1.0000 0.79240  0.73310  0.54017  Biso   1.000  C
  H479     1.0000 0.80250  0.73470  0.52700  Biso   1.000  H
  C599     1.0000 0.79220  0.70310  0.55060  Biso   1.000  C
  H480     1.0000 0.80220  0.68430  0.54450  Biso   1.000  H
  C600     1.0000 0.77780  0.79230  0.53760  Biso   1.000  C
  Co17     1.0000 0.28223  0.10630  0.50000  Biso   1.000  Co
  Co18     1.0000 0.20087  0.17090  0.50000  Biso   1.000  Co
  S17      1.0000 0.27818  0.03030  0.50000  Biso   1.000  S
  S18      1.0000 0.12620  0.15103  0.50000  Biso   1.000  S
  O105     1.0000 0.30140  0.05870  0.50000  Biso   1.000  O
  O106     1.0000 0.29580  0.99770  0.50000  Biso   1.000  O
  O107     1.0000 0.14900  0.17790  0.50000  Biso   1.000  O
  O108     1.0000 0.09200  0.15860  0.50000  Biso   1.000  O
  O109     1.0000 0.24780  0.14960  0.50000  Biso   1.000  O
  H481     1.0000 0.25950  0.16680  0.50000  Biso   1.000  H
  Co19     1.0000 0.71777  0.89370  0.50000  Biso   1.000  Co
  Co20     1.0000 0.79913  0.82910  0.50000  Biso   1.000  Co
  S19      1.0000 0.72182  0.96970  0.50000  Biso   1.000  S
  S20      1.0000 0.87380  0.84897  0.50000  Biso   1.000  S
  O110     1.0000 0.69860  0.94130  0.50000  Biso   1.000  O
  O111     1.0000 0.70420  0.00230  0.50000  Biso   1.000  O
  O112     1.0000 0.85100  0.82210  0.50000  Biso   1.000  O
  O113     1.0000 0.90800  0.84140  0.50000  Biso   1.000  O
  O114     1.0000 0.75220  0.85040  0.50000  Biso   1.000  O
  H482     1.0000 0.74050  0.83320  0.50000  Biso   1.000  H
  Co21     1.0000 0.89370  0.28223  0.50000  Biso   1.000  Co
  Co22     1.0000 0.82910  0.20087  0.50000  Biso   1.000  Co
  S21      1.0000 0.96970  0.27818  0.50000  Biso   1.000  S
  S22      1.0000 0.84897  0.12620  0.50000  Biso   1.000  S
  O115     1.0000 0.94130  0.30140  0.50000  Biso   1.000  O
  O116     1.0000 0.00230  0.29580  0.50000  Biso   1.000  O
  O117     1.0000 0.82210  0.14900  0.50000  Biso   1.000  O
  O118     1.0000 0.84140  0.09200  0.50000  Biso   1.000  O
  O119     1.0000 0.85040  0.24780  0.50000  Biso   1.000  O
  H483     1.0000 0.83320  0.25950  0.50000  Biso   1.000  H
  Co23     1.0000 0.10630  0.71777  0.50000  Biso   1.000  Co
  Co24     1.0000 0.17090  0.79913  0.50000  Biso   1.000  Co
  S23      1.0000 0.03030  0.72182  0.50000  Biso   1.000  S
  S24      1.0000 0.15103  0.87380  0.50000  Biso   1.000  S
  O120     1.0000 0.05870  0.69860  0.50000  Biso   1.000  O
  O121     1.0000 0.99770  0.70420  0.50000  Biso   1.000  O
  O122     1.0000 0.17790  0.85100  0.50000  Biso   1.000  O
  O123     1.0000 0.15860  0.90800  0.50000  Biso   1.000  O
  O124     1.0000 0.14960  0.75220  0.50000  Biso   1.000  O
  H484     1.0000 0.16680  0.74050  0.50000  Biso   1.000  H
  O125     1.0000 0.50000  0.50000  0.22910  Biso   1.000  O
  H485     1.0000 0.50000  0.50000  0.24210  Biso   1.000  H
  O126     1.0000 0.50000  0.50000  0.77090  Biso   1.000  O
  H486     1.0000 0.50000  0.50000  0.75790  Biso   1.000  H
  Co25     1.0000 0.74138  0.63862  0.96694  Biso   1.000  Co
  Co26     1.0000 0.96718  0.95916  0.72160  Biso   1.000  Co
  S25      1.0000 0.70181  0.59044  0.93879  Biso   1.000  S
  S26      1.0000 0.93713  0.92536  0.68257  Biso   1.000  S
  O127     1.0000 0.72340  0.61780  0.93923  Biso   1.000  O
  O128     1.0000 0.69220  0.57930  0.91859  Biso   1.000  O
  O129     1.0000 0.74960  0.59104  0.97716  Biso   1.000  O
  O130     1.0000 0.69283  0.63557  0.97772  Biso   1.000  O
  O131     1.0000 0.93840  0.92610  0.70494  Biso   1.000  O
  O132     1.0000 0.91530  0.90170  0.67318  Biso   1.000  O
  O133     1.0000 0.00620  0.94900  0.70131  Biso   1.000  O
  O134     1.0000 0.78730  0.64200  0.95419  Biso   1.000  O
  O135     1.0000 0.81840  0.61830  0.97830  Biso   1.000  O
  O136     1.0000 0.98160  0.92180  0.74004  Biso   1.000  O
  O137     1.0000 0.03370  0.92870  0.74193  Biso   1.000  O
  O138     1.0000 0.31450  0.73470  0.95485  Biso   1.000  O
  O139     1.0000 0.29210  0.70720  0.97846  Biso   1.000  O
  C601     1.0000 0.74010  0.56030  0.96920  Biso   1.000  C
  C602     1.0000 0.71920  0.55760  0.95226  Biso   1.000  C
  C603     1.0000 0.71090  0.52670  0.94458  Biso   1.000  C
  H487     1.0000 0.69670  0.52490  0.93300  Biso   1.000  H
  C604     1.0000 0.72360  0.49846  0.95383  Biso   1.000  C
  C605     1.0000 0.74450  0.50120  0.97075  Biso   1.000  C
  H488     1.0000 0.75310  0.48190  0.97710  Biso   1.000  H
  C606     1.0000 0.75270  0.53210  0.97843  Biso   1.000  C
  C607     1.0000 0.71560  0.46490  0.94542  Biso   1.000  C
  C608     1.0000 0.69530  0.46600  0.92588  Biso   1.000  C
  H489     1.0000 0.69100  0.44340  0.92120  Biso   1.000  H
  H490     1.0000 0.67440  0.47720  0.92860  Biso   1.000  H
  H491     1.0000 0.70750  0.47800  0.91520  Biso   1.000  H
  C609     1.0000 0.69730  0.44440  0.96140  Biso   1.000  C
  H492     1.0000 0.69230  0.42260  0.95570  Biso   1.000  H
  H493     1.0000 0.71110  0.44190  0.97370  Biso   1.000  H
  H494     1.0000 0.67670  0.45550  0.96520  Biso   1.000  H
  C610     1.0000 0.74750  0.44610  0.94040  Biso   1.000  C
  H495     1.0000 0.74190  0.42430  0.93500  Biso   1.000  H
  H496     1.0000 0.76020  0.45850  0.93010  Biso   1.000  H
  H497     1.0000 0.76060  0.44370  0.95300  Biso   1.000  H
  C611     1.0000 0.66340  0.62320  0.96840  Biso   1.000  C
  C612     1.0000 0.66527  0.60260  0.95130  Biso   1.000  C
  C613     1.0000 0.63720  0.58620  0.94441  Biso   1.000  C
  H498     1.0000 0.63850  0.57210  0.93270  Biso   1.000  H
  C614     1.0000 0.60740  0.59040  0.95462  Biso   1.000  C
  C615     1.0000 0.60560  0.61100  0.97173  Biso   1.000  C
  H499     1.0000 0.58510  0.61390  0.97870  Biso   1.000  H
  C616     1.0000 0.63360  0.62740  0.97861  Biso   1.000  C
  C617     1.0000 0.57770  0.57040  0.94869  Biso   1.000  C
  C618     1.0000 0.58300  0.55030  0.92929  Biso   1.000  C
  H500     1.0000 0.56290  0.53780  0.92610  Biso   1.000  H
  H501     1.0000 0.58810  0.56510  0.91780  Biso   1.000  H
  H502     1.0000 0.60140  0.53500  0.93140  Biso   1.000  H
  C619     1.0000 0.56890  0.54600  0.96598  Biso   1.000  C
  H503     1.0000 0.54950  0.53310  0.96190  Biso   1.000  H
  H504     1.0000 0.58760  0.53110  0.96840  Biso   1.000  H
  H505     1.0000 0.56410  0.55820  0.97870  Biso   1.000  H
  C620     1.0000 0.54760  0.59230  0.94580  Biso   1.000  C
  H506     1.0000 0.52860  0.57870  0.94200  Biso   1.000  H
  H507     1.0000 0.54290  0.60390  0.95870  Biso   1.000  H
  H508     1.0000 0.55200  0.60840  0.93490  Biso   1.000  H
  C621     1.0000 0.00560  0.93140  0.68205  Biso   1.000  C
  C622     1.0000 0.97680  0.91910  0.67333  Biso   1.000  C
  C623     1.0000 0.97830  0.89950  0.65577  Biso   1.000  C
  H509     1.0000 0.95860  0.89110  0.64980  Biso   1.000  H
  C624     1.0000 0.00870  0.89220  0.64693  Biso   1.000  C
  C625     1.0000 0.03750  0.90440  0.65565  Biso   1.000  C
  H510     1.0000 0.05830  0.89940  0.64960  Biso   1.000  H
  C626     1.0000 0.03600  0.92410  0.67321  Biso   1.000  C
  C627     1.0000 0.01000  0.87230  0.62723  Biso   1.000  C
  C628     1.0000 0.99330  0.83920  0.62970  Biso   1.000  C
  H511     1.0000 0.99460  0.82700  0.61660  Biso   1.000  H
  H512     1.0000 0.00440  0.82650  0.64050  Biso   1.000  H
  H513     1.0000 0.97010  0.84250  0.63340  Biso   1.000  H
  C629     1.0000 0.99190  0.89020  0.60993  Biso   1.000  C
  H514     1.0000 0.99300  0.87690  0.59730  Biso   1.000  H
  H515     1.0000 0.96880  0.89350  0.61380  Biso   1.000  H
  H516     1.0000 0.00240  0.91160  0.60750  Biso   1.000  H
  C630     1.0000 0.04490  0.86620  0.62000  Biso   1.000  C
  H517     1.0000 0.04460  0.85330  0.60720  Biso   1.000  H
  H518     1.0000 0.05590  0.88740  0.61750  Biso   1.000  H
  H519     1.0000 0.05700  0.85400  0.63070  Biso   1.000  H
  C631     1.0000 0.81460  0.63360  0.96186  Biso   1.000  C
  C632     1.0000 0.84460  0.64170  0.94999  Biso   1.000  C
  C633     1.0000 0.84216  0.65750  0.93101  Biso   1.000  C
  H520     1.0000 0.82110  0.66220  0.92530  Biso   1.000  H
  C634     1.0000 0.87060  0.66650  0.92039  Biso   1.000  C
  H521     1.0000 0.86890  0.67730  0.90740  Biso   1.000  H
  C635     1.0000 0.90141  0.65970  0.92874  Biso   1.000  C
  C636     1.0000 0.90386  0.64390  0.94772  Biso   1.000  C
  H522     1.0000 0.92490  0.63930  0.95340  Biso   1.000  H
  C637     1.0000 0.87550  0.63490  0.95834  Biso   1.000  C
  H523     1.0000 0.87710  0.62410  0.97130  Biso   1.000  H
  C638     1.0000 0.93210  0.67200  0.91797  Biso   1.000  C
  C639     1.0000 0.93310  0.67370  0.89656  Biso   1.000  C
  H524     1.0000 0.91470  0.66650  0.88870  Biso   1.000  H
  C640     1.0000 0.96100  0.68600  0.88672  Biso   1.000  C
  H525     1.0000 0.96160  0.68720  0.87210  Biso   1.000  H
  C641     1.0000 0.98780  0.69660  0.89829  Biso   1.000  C
  C642     1.0000 0.98680  0.69480  0.91971  Biso   1.000  C
  H526     1.0000 0.00520  0.70200  0.92760  Biso   1.000  H
  C643     1.0000 0.95900  0.68250  0.92955  Biso   1.000  C
  H527     1.0000 0.95830  0.68130  0.94420  Biso   1.000  H
  C644     1.0000 0.01692  0.71230  0.88758  Biso   1.000  C
  C645     1.0000 0.01225  0.73190  0.87019  Biso   1.000  C
  H528     1.0000 0.99110  0.73320  0.86400  Biso   1.000  H
  C646     1.0000 0.03855  0.74950  0.86192  Biso   1.000  C
  C647     1.0000 0.06953  0.74750  0.87104  Biso   1.000  C
  H529     1.0000 0.08750  0.75950  0.86540  Biso   1.000  H
  C648     1.0000 0.07421  0.72800  0.88842  Biso   1.000  C
  C649     1.0000 0.04791  0.71040  0.89670  Biso   1.000  C
  H530     1.0000 0.05110  0.69710  0.90860  Biso   1.000  H
  C650     1.0000 0.03310  0.77110  0.84345  Biso   1.000  C
  C651     1.0000 0.00390  0.78890  0.84144  Biso   1.000  C
  H531     1.0000 0.98680  0.78630  0.85130  Biso   1.000  H
  C652     1.0000 0.99980  0.81040  0.82494  Biso   1.000  C
  H532     1.0000 0.97990  0.82250  0.82360  Biso   1.000  H
  C653     1.0000 0.02480  0.81410  0.81046  Biso   1.000  C
  C654     1.0000 0.05390  0.79640  0.81247  Biso   1.000  C
  H533     1.0000 0.07100  0.79890  0.80260  Biso   1.000  H
  C655     1.0000 0.05810  0.77480  0.82897  Biso   1.000  C
  H534     1.0000 0.07800  0.76270  0.83030  Biso   1.000  H
  C656     1.0000 0.02100  0.83840  0.79289  Biso   1.000  C
  C657     1.0000 0.98980  0.84580  0.78524  Biso   1.000  C
  H535     1.0000 0.97100  0.83450  0.79040  Biso   1.000  H
  C658     1.0000 0.98610  0.86970  0.77004  Biso   1.000  C
  H536     1.0000 0.96480  0.87470  0.76480  Biso   1.000  H
  C659     1.0000 0.01360  0.88620  0.76248  Biso   1.000  C
  C660     1.0000 0.04480  0.87880  0.77012  Biso   1.000  C
  H537     1.0000 0.06360  0.89010  0.76500  Biso   1.000  H
  C661     1.0000 0.04850  0.85490  0.78533  Biso   1.000  C
  H538     1.0000 0.06980  0.84990  0.79060  Biso   1.000  H
  C662     1.0000 0.00930  0.91350  0.74733  Biso   1.000  C
  C663     1.0000 0.10692  0.72780  0.89953  Biso   1.000  C
  C664     1.0000 0.13590  0.72930  0.88812  Biso   1.000  C
  H539     1.0000 0.13500  0.73150  0.87350  Biso   1.000  H
  C665     1.0000 0.16627  0.72770  0.89804  Biso   1.000  C
  H540     1.0000 0.18610  0.72880  0.89020  Biso   1.000  H
  C666     1.0000 0.16763  0.72460  0.91939  Biso   1.000  C
  C667     1.0000 0.13860  0.72310  0.93080  Biso   1.000  C
  H541     1.0000 0.13960  0.72090  0.94540  Biso   1.000  H
  C668     1.0000 0.10828  0.72460  0.92088  Biso   1.000  C
  H542     1.0000 0.08850  0.72360  0.92870  Biso   1.000  H
  C669     1.0000 0.20079  0.72250  0.93010  Biso   1.000  C
  C670     1.0000 0.22840  0.73720  0.92124  Biso   1.000  C
  H543     1.0000 0.22680  0.74730  0.90800  Biso   1.000  H
  C671     1.0000 0.25840  0.73700  0.93168  Biso   1.000  C
  H544     1.0000 0.27720  0.74700  0.92560  Biso   1.000  H
  C672     1.0000 0.26070  0.72220  0.95098  Biso   1.000  C
  C673     1.0000 0.23310  0.70760  0.95983  Biso   1.000  C
  H545     1.0000 0.23470  0.69750  0.97300  Biso   1.000  H
  C674     1.0000 0.20310  0.70780  0.94940  Biso   1.000  C
  H546     1.0000 0.18430  0.69780  0.95550  Biso   1.000  H
  C675     1.0000 0.29230  0.72220  0.96240  Biso   1.000  C
  Co27     1.0000 0.25862  0.36138  0.96694  Biso   1.000  Co
  Co28     1.0000 0.03282  0.04084  0.72160  Biso   1.000  Co
  S27      1.0000 0.29819  0.40956  0.93879  Biso   1.000  S
  S28      1.0000 0.06287  0.07464  0.68257  Biso   1.000  S
  O140     1.0000 0.27660  0.38220  0.93923  Biso   1.000  O
  O141     1.0000 0.30780  0.42070  0.91859  Biso   1.000  O
  O142     1.0000 0.25040  0.40896  0.97716  Biso   1.000  O
  O143     1.0000 0.30717  0.36443  0.97772  Biso   1.000  O
  O144     1.0000 0.06160  0.07390  0.70494  Biso   1.000  O
  O145     1.0000 0.08470  0.09830  0.67318  Biso   1.000  O
  O146     1.0000 0.99380  0.05100  0.70131  Biso   1.000  O
  O147     1.0000 0.21270  0.35800  0.95419  Biso   1.000  O
  O148     1.0000 0.18160  0.38170  0.97830  Biso   1.000  O
  O149     1.0000 0.01840  0.07820  0.74004  Biso   1.000  O
  O150     1.0000 0.96630  0.07130  0.74193  Biso   1.000  O
  O151     1.0000 0.68550  0.26530  0.95485  Biso   1.000  O
  O152     1.0000 0.70790  0.29280  0.97846  Biso   1.000  O
  C676     1.0000 0.25990  0.43970  0.96920  Biso   1.000  C
  C677     1.0000 0.28080  0.44240  0.95226  Biso   1.000  C
  C678     1.0000 0.28910  0.47330  0.94458  Biso   1.000  C
  H547     1.0000 0.30330  0.47510  0.93300  Biso   1.000  H
  C679     1.0000 0.27640  0.50154  0.95383  Biso   1.000  C
  C680     1.0000 0.25550  0.49880  0.97075  Biso   1.000  C
  H548     1.0000 0.24690  0.51810  0.97710  Biso   1.000  H
  C681     1.0000 0.24730  0.46790  0.97843  Biso   1.000  C
  C682     1.0000 0.28440  0.53510  0.94542  Biso   1.000  C
  C683     1.0000 0.30470  0.53400  0.92588  Biso   1.000  C
  H549     1.0000 0.30900  0.55660  0.92120  Biso   1.000  H
  H550     1.0000 0.32560  0.52280  0.92860  Biso   1.000  H
  H551     1.0000 0.29250  0.52200  0.91520  Biso   1.000  H
  C684     1.0000 0.30270  0.55560  0.96140  Biso   1.000  C
  H552     1.0000 0.30770  0.57740  0.95570  Biso   1.000  H
  H553     1.0000 0.28890  0.55810  0.97370  Biso   1.000  H
  H554     1.0000 0.32330  0.54450  0.96520  Biso   1.000  H
  C685     1.0000 0.25250  0.55390  0.94040  Biso   1.000  C
  H555     1.0000 0.25810  0.57570  0.93500  Biso   1.000  H
  H556     1.0000 0.23980  0.54150  0.93010  Biso   1.000  H
  H557     1.0000 0.23940  0.55630  0.95300  Biso   1.000  H
  C686     1.0000 0.33660  0.37680  0.96840  Biso   1.000  C
  C687     1.0000 0.33473  0.39740  0.95130  Biso   1.000  C
  C688     1.0000 0.36280  0.41380  0.94441  Biso   1.000  C
  H558     1.0000 0.36150  0.42790  0.93270  Biso   1.000  H
  C689     1.0000 0.39260  0.40960  0.95462  Biso   1.000  C
  C690     1.0000 0.39440  0.38900  0.97173  Biso   1.000  C
  H559     1.0000 0.41490  0.38610  0.97870  Biso   1.000  H
  C691     1.0000 0.36640  0.37260  0.97861  Biso   1.000  C
  C692     1.0000 0.42230  0.42960  0.94869  Biso   1.000  C
  C693     1.0000 0.41700  0.44970  0.92929  Biso   1.000  C
  H560     1.0000 0.43710  0.46220  0.92610  Biso   1.000  H
  H561     1.0000 0.41190  0.43490  0.91780  Biso   1.000  H
  H562     1.0000 0.39860  0.46500  0.93140  Biso   1.000  H
  C694     1.0000 0.43110  0.45400  0.96598  Biso   1.000  C
  H563     1.0000 0.45050  0.46690  0.96190  Biso   1.000  H
  H564     1.0000 0.41240  0.46890  0.96840  Biso   1.000  H
  H565     1.0000 0.43590  0.44180  0.97870  Biso   1.000  H
  C695     1.0000 0.45240  0.40770  0.94580  Biso   1.000  C
  H566     1.0000 0.47140  0.42130  0.94200  Biso   1.000  H
  H567     1.0000 0.45710  0.39610  0.95870  Biso   1.000  H
  H568     1.0000 0.44800  0.39160  0.93490  Biso   1.000  H
  C696     1.0000 0.99440  0.06860  0.68205  Biso   1.000  C
  C697     1.0000 0.02320  0.08090  0.67333  Biso   1.000  C
  C698     1.0000 0.02170  0.10050  0.65577  Biso   1.000  C
  H569     1.0000 0.04140  0.10890  0.64980  Biso   1.000  H
  C699     1.0000 0.99130  0.10780  0.64693  Biso   1.000  C
  C700     1.0000 0.96250  0.09560  0.65565  Biso   1.000  C
  H570     1.0000 0.94170  0.10060  0.64960  Biso   1.000  H
  C701     1.0000 0.96400  0.07590  0.67321  Biso   1.000  C
  C702     1.0000 0.99000  0.12770  0.62723  Biso   1.000  C
  C703     1.0000 0.00670  0.16080  0.62970  Biso   1.000  C
  H571     1.0000 0.00540  0.17300  0.61660  Biso   1.000  H
  H572     1.0000 0.99560  0.17350  0.64050  Biso   1.000  H
  H573     1.0000 0.02990  0.15750  0.63340  Biso   1.000  H
  C704     1.0000 0.00810  0.10980  0.60993  Biso   1.000  C
  H574     1.0000 0.00700  0.12310  0.59730  Biso   1.000  H
  H575     1.0000 0.03120  0.10650  0.61380  Biso   1.000  H
  H576     1.0000 0.99760  0.08840  0.60750  Biso   1.000  H
  C705     1.0000 0.95510  0.13380  0.62000  Biso   1.000  C
  H577     1.0000 0.95540  0.14670  0.60720  Biso   1.000  H
  H578     1.0000 0.94410  0.11260  0.61750  Biso   1.000  H
  H579     1.0000 0.94300  0.14600  0.63070  Biso   1.000  H
  C706     1.0000 0.18540  0.36640  0.96186  Biso   1.000  C
  C707     1.0000 0.15540  0.35830  0.94999  Biso   1.000  C
  C708     1.0000 0.15784  0.34250  0.93101  Biso   1.000  C
  H580     1.0000 0.17890  0.33780  0.92530  Biso   1.000  H
  C709     1.0000 0.12940  0.33350  0.92039  Biso   1.000  C
  H581     1.0000 0.13110  0.32270  0.90740  Biso   1.000  H
  C710     1.0000 0.09859  0.34030  0.92874  Biso   1.000  C
  C711     1.0000 0.09614  0.35610  0.94772  Biso   1.000  C
  H582     1.0000 0.07510  0.36070  0.95340  Biso   1.000  H
  C712     1.0000 0.12450  0.36510  0.95834  Biso   1.000  C
  H583     1.0000 0.12290  0.37590  0.97130  Biso   1.000  H
  C713     1.0000 0.06790  0.32800  0.91797  Biso   1.000  C
  C714     1.0000 0.06690  0.32630  0.89656  Biso   1.000  C
  H584     1.0000 0.08530  0.33350  0.88870  Biso   1.000  H
  C715     1.0000 0.03900  0.31400  0.88672  Biso   1.000  C
  H585     1.0000 0.03840  0.31280  0.87210  Biso   1.000  H
  C716     1.0000 0.01220  0.30340  0.89829  Biso   1.000  C
  C717     1.0000 0.01320  0.30520  0.91971  Biso   1.000  C
  H586     1.0000 0.99480  0.29800  0.92760  Biso   1.000  H
  C718     1.0000 0.04100  0.31750  0.92955  Biso   1.000  C
  H587     1.0000 0.04170  0.31870  0.94420  Biso   1.000  H
  C719     1.0000 0.98308  0.28770  0.88758  Biso   1.000  C
  C720     1.0000 0.98775  0.26810  0.87019  Biso   1.000  C
  H588     1.0000 0.00890  0.26680  0.86400  Biso   1.000  H
  C721     1.0000 0.96145  0.25050  0.86192  Biso   1.000  C
  C722     1.0000 0.93047  0.25250  0.87104  Biso   1.000  C
  H589     1.0000 0.91250  0.24050  0.86540  Biso   1.000  H
  C723     1.0000 0.92579  0.27200  0.88842  Biso   1.000  C
  C724     1.0000 0.95209  0.28960  0.89670  Biso   1.000  C
  H590     1.0000 0.94890  0.30290  0.90860  Biso   1.000  H
  C725     1.0000 0.96690  0.22890  0.84345  Biso   1.000  C
  C726     1.0000 0.99610  0.21110  0.84144  Biso   1.000  C
  H591     1.0000 0.01320  0.21370  0.85130  Biso   1.000  H
  C727     1.0000 0.00020  0.18960  0.82494  Biso   1.000  C
  H592     1.0000 0.02010  0.17750  0.82360  Biso   1.000  H
  C728     1.0000 0.97520  0.18590  0.81046  Biso   1.000  C
  C729     1.0000 0.94610  0.20360  0.81247  Biso   1.000  C
  H593     1.0000 0.92900  0.20110  0.80260  Biso   1.000  H
  C730     1.0000 0.94190  0.22520  0.82897  Biso   1.000  C
  H594     1.0000 0.92200  0.23730  0.83030  Biso   1.000  H
  C731     1.0000 0.97900  0.16160  0.79289  Biso   1.000  C
  C732     1.0000 0.01020  0.15420  0.78524  Biso   1.000  C
  H595     1.0000 0.02900  0.16550  0.79040  Biso   1.000  H
  C733     1.0000 0.01390  0.13030  0.77004  Biso   1.000  C
  H596     1.0000 0.03520  0.12530  0.76480  Biso   1.000  H
  C734     1.0000 0.98640  0.11380  0.76248  Biso   1.000  C
  C735     1.0000 0.95520  0.12120  0.77012  Biso   1.000  C
  H597     1.0000 0.93640  0.10990  0.76500  Biso   1.000  H
  C736     1.0000 0.95150  0.14510  0.78533  Biso   1.000  C
  H598     1.0000 0.93020  0.15010  0.79060  Biso   1.000  H
  C737     1.0000 0.99070  0.08650  0.74733  Biso   1.000  C
  C738     1.0000 0.89308  0.27220  0.89953  Biso   1.000  C
  C739     1.0000 0.86410  0.27070  0.88812  Biso   1.000  C
  H599     1.0000 0.86500  0.26850  0.87350  Biso   1.000  H
  C740     1.0000 0.83373  0.27230  0.89804  Biso   1.000  C
  H600     1.0000 0.81390  0.27120  0.89020  Biso   1.000  H
  C741     1.0000 0.83237  0.27540  0.91939  Biso   1.000  C
  C742     1.0000 0.86140  0.27690  0.93080  Biso   1.000  C
  H601     1.0000 0.86040  0.27910  0.94540  Biso   1.000  H
  C743     1.0000 0.89172  0.27540  0.92088  Biso   1.000  C
  H602     1.0000 0.91150  0.27640  0.92870  Biso   1.000  H
  C744     1.0000 0.79921  0.27750  0.93010  Biso   1.000  C
  C745     1.0000 0.77160  0.26280  0.92124  Biso   1.000  C
  H603     1.0000 0.77320  0.25270  0.90800  Biso   1.000  H
  C746     1.0000 0.74160  0.26300  0.93168  Biso   1.000  C
  H604     1.0000 0.72280  0.25300  0.92560  Biso   1.000  H
  C747     1.0000 0.73930  0.27780  0.95098  Biso   1.000  C
  C748     1.0000 0.76690  0.29240  0.95983  Biso   1.000  C
  H605     1.0000 0.76530  0.30250  0.97300  Biso   1.000  H
  C749     1.0000 0.79690  0.29220  0.94940  Biso   1.000  C
  H606     1.0000 0.81570  0.30220  0.95550  Biso   1.000  H
  C750     1.0000 0.70770  0.27780  0.96240  Biso   1.000  C
  Co29     1.0000 0.36138  0.74138  0.96694  Biso   1.000  Co
  Co30     1.0000 0.04084  0.96718  0.72160  Biso   1.000  Co
  S29      1.0000 0.40956  0.70181  0.93879  Biso   1.000  S
  S30      1.0000 0.07464  0.93713  0.68257  Biso   1.000  S
  O153     1.0000 0.38220  0.72340  0.93923  Biso   1.000  O
  O154     1.0000 0.42070  0.69220  0.91859  Biso   1.000  O
  O155     1.0000 0.40896  0.74960  0.97716  Biso   1.000  O
  O156     1.0000 0.36443  0.69283  0.97772  Biso   1.000  O
  O157     1.0000 0.07390  0.93840  0.70494  Biso   1.000  O
  O158     1.0000 0.09830  0.91530  0.67318  Biso   1.000  O
  O159     1.0000 0.05100  0.00620  0.70131  Biso   1.000  O
  O160     1.0000 0.35800  0.78730  0.95419  Biso   1.000  O
  O161     1.0000 0.38170  0.81840  0.97830  Biso   1.000  O
  O162     1.0000 0.07820  0.98160  0.74004  Biso   1.000  O
  O163     1.0000 0.07130  0.03370  0.74193  Biso   1.000  O
  O164     1.0000 0.26530  0.31450  0.95485  Biso   1.000  O
  O165     1.0000 0.29280  0.29210  0.97846  Biso   1.000  O
  C751     1.0000 0.43970  0.74010  0.96920  Biso   1.000  C
  C752     1.0000 0.44240  0.71920  0.95226  Biso   1.000  C
  C753     1.0000 0.47330  0.71090  0.94458  Biso   1.000  C
  H607     1.0000 0.47510  0.69670  0.93300  Biso   1.000  H
  C754     1.0000 0.50154  0.72360  0.95383  Biso   1.000  C
  C755     1.0000 0.49880  0.74450  0.97075  Biso   1.000  C
  H608     1.0000 0.51810  0.75310  0.97710  Biso   1.000  H
  C756     1.0000 0.46790  0.75270  0.97843  Biso   1.000  C
  C757     1.0000 0.53510  0.71560  0.94542  Biso   1.000  C
  C758     1.0000 0.53400  0.69530  0.92588  Biso   1.000  C
  H609     1.0000 0.55660  0.69100  0.92120  Biso   1.000  H
  H610     1.0000 0.52280  0.67440  0.92860  Biso   1.000  H
  H611     1.0000 0.52200  0.70750  0.91520  Biso   1.000  H
  C759     1.0000 0.55560  0.69730  0.96140  Biso   1.000  C
  H612     1.0000 0.57740  0.69230  0.95570  Biso   1.000  H
  H613     1.0000 0.55810  0.71110  0.97370  Biso   1.000  H
  H614     1.0000 0.54450  0.67670  0.96520  Biso   1.000  H
  C760     1.0000 0.55390  0.74750  0.94040  Biso   1.000  C
  H615     1.0000 0.57570  0.74190  0.93500  Biso   1.000  H
  H616     1.0000 0.54150  0.76020  0.93010  Biso   1.000  H
  H617     1.0000 0.55630  0.76060  0.95300  Biso   1.000  H
  C761     1.0000 0.37680  0.66340  0.96840  Biso   1.000  C
  C762     1.0000 0.39740  0.66527  0.95130  Biso   1.000  C
  C763     1.0000 0.41380  0.63720  0.94441  Biso   1.000  C
  H618     1.0000 0.42790  0.63850  0.93270  Biso   1.000  H
  C764     1.0000 0.40960  0.60740  0.95462  Biso   1.000  C
  C765     1.0000 0.38900  0.60560  0.97173  Biso   1.000  C
  H619     1.0000 0.38610  0.58510  0.97870  Biso   1.000  H
  C766     1.0000 0.37260  0.63360  0.97861  Biso   1.000  C
  C767     1.0000 0.42960  0.57770  0.94869  Biso   1.000  C
  C768     1.0000 0.44970  0.58300  0.92929  Biso   1.000  C
  H620     1.0000 0.46220  0.56290  0.92610  Biso   1.000  H
  H621     1.0000 0.43490  0.58810  0.91780  Biso   1.000  H
  H622     1.0000 0.46500  0.60140  0.93140  Biso   1.000  H
  C769     1.0000 0.45400  0.56890  0.96598  Biso   1.000  C
  H623     1.0000 0.46690  0.54950  0.96190  Biso   1.000  H
  H624     1.0000 0.46890  0.58760  0.96840  Biso   1.000  H
  H625     1.0000 0.44180  0.56410  0.97870  Biso   1.000  H
  C770     1.0000 0.40770  0.54760  0.94580  Biso   1.000  C
  H626     1.0000 0.42130  0.52860  0.94200  Biso   1.000  H
  H627     1.0000 0.39610  0.54290  0.95870  Biso   1.000  H
  H628     1.0000 0.39160  0.55200  0.93490  Biso   1.000  H
  C771     1.0000 0.06860  0.00560  0.68205  Biso   1.000  C
  C772     1.0000 0.08090  0.97680  0.67333  Biso   1.000  C
  C773     1.0000 0.10050  0.97830  0.65577  Biso   1.000  C
  H629     1.0000 0.10890  0.95860  0.64980  Biso   1.000  H
  C774     1.0000 0.10780  0.00870  0.64693  Biso   1.000  C
  C775     1.0000 0.09560  0.03750  0.65565  Biso   1.000  C
  H630     1.0000 0.10060  0.05830  0.64960  Biso   1.000  H
  C776     1.0000 0.07590  0.03600  0.67321  Biso   1.000  C
  C777     1.0000 0.12770  0.01000  0.62723  Biso   1.000  C
  C778     1.0000 0.16080  0.99330  0.62970  Biso   1.000  C
  H631     1.0000 0.17300  0.99460  0.61660  Biso   1.000  H
  H632     1.0000 0.17350  0.00440  0.64050  Biso   1.000  H
  H633     1.0000 0.15750  0.97010  0.63340  Biso   1.000  H
  C779     1.0000 0.10980  0.99190  0.60993  Biso   1.000  C
  H634     1.0000 0.12310  0.99300  0.59730  Biso   1.000  H
  H635     1.0000 0.10650  0.96880  0.61380  Biso   1.000  H
  H636     1.0000 0.08840  0.00240  0.60750  Biso   1.000  H
  C780     1.0000 0.13380  0.04490  0.62000  Biso   1.000  C
  H637     1.0000 0.14670  0.04460  0.60720  Biso   1.000  H
  H638     1.0000 0.11260  0.05590  0.61750  Biso   1.000  H
  H639     1.0000 0.14600  0.05700  0.63070  Biso   1.000  H
  C781     1.0000 0.36640  0.81460  0.96186  Biso   1.000  C
  C782     1.0000 0.35830  0.84460  0.94999  Biso   1.000  C
  C783     1.0000 0.34250  0.84216  0.93101  Biso   1.000  C
  H640     1.0000 0.33780  0.82110  0.92530  Biso   1.000  H
  C784     1.0000 0.33350  0.87060  0.92039  Biso   1.000  C
  H641     1.0000 0.32270  0.86890  0.90740  Biso   1.000  H
  C785     1.0000 0.34030  0.90141  0.92874  Biso   1.000  C
  C786     1.0000 0.35610  0.90386  0.94772  Biso   1.000  C
  H642     1.0000 0.36070  0.92490  0.95340  Biso   1.000  H
  C787     1.0000 0.36510  0.87550  0.95834  Biso   1.000  C
  H643     1.0000 0.37590  0.87710  0.97130  Biso   1.000  H
  C788     1.0000 0.32800  0.93210  0.91797  Biso   1.000  C
  C789     1.0000 0.32630  0.93310  0.89656  Biso   1.000  C
  H644     1.0000 0.33350  0.91470  0.88870  Biso   1.000  H
  C790     1.0000 0.31400  0.96100  0.88672  Biso   1.000  C
  H645     1.0000 0.31280  0.96160  0.87210  Biso   1.000  H
  C791     1.0000 0.30340  0.98780  0.89829  Biso   1.000  C
  C792     1.0000 0.30520  0.98680  0.91971  Biso   1.000  C
  H646     1.0000 0.29800  0.00520  0.92760  Biso   1.000  H
  C793     1.0000 0.31750  0.95900  0.92955  Biso   1.000  C
  H647     1.0000 0.31870  0.95830  0.94420  Biso   1.000  H
  C794     1.0000 0.28770  0.01692  0.88758  Biso   1.000  C
  C795     1.0000 0.26810  0.01225  0.87019  Biso   1.000  C
  H648     1.0000 0.26680  0.99110  0.86400  Biso   1.000  H
  C796     1.0000 0.25050  0.03855  0.86192  Biso   1.000  C
  C797     1.0000 0.25250  0.06953  0.87104  Biso   1.000  C
  H649     1.0000 0.24050  0.08750  0.86540  Biso   1.000  H
  C798     1.0000 0.27200  0.07421  0.88842  Biso   1.000  C
  C799     1.0000 0.28960  0.04791  0.89670  Biso   1.000  C
  H650     1.0000 0.30290  0.05110  0.90860  Biso   1.000  H
  C800     1.0000 0.22890  0.03310  0.84345  Biso   1.000  C
  C801     1.0000 0.21110  0.00390  0.84144  Biso   1.000  C
  H651     1.0000 0.21370  0.98680  0.85130  Biso   1.000  H
  C802     1.0000 0.18960  0.99980  0.82494  Biso   1.000  C
  H652     1.0000 0.17750  0.97990  0.82360  Biso   1.000  H
  C803     1.0000 0.18590  0.02480  0.81046  Biso   1.000  C
  C804     1.0000 0.20360  0.05390  0.81247  Biso   1.000  C
  H653     1.0000 0.20110  0.07100  0.80260  Biso   1.000  H
  C805     1.0000 0.22520  0.05810  0.82897  Biso   1.000  C
  H654     1.0000 0.23730  0.07800  0.83030  Biso   1.000  H
  C806     1.0000 0.16160  0.02100  0.79289  Biso   1.000  C
  C807     1.0000 0.15420  0.98980  0.78524  Biso   1.000  C
  H655     1.0000 0.16550  0.97100  0.79040  Biso   1.000  H
  C808     1.0000 0.13030  0.98610  0.77004  Biso   1.000  C
  H656     1.0000 0.12530  0.96480  0.76480  Biso   1.000  H
  C809     1.0000 0.11380  0.01360  0.76248  Biso   1.000  C
  C810     1.0000 0.12120  0.04480  0.77012  Biso   1.000  C
  H657     1.0000 0.10990  0.06360  0.76500  Biso   1.000  H
  C811     1.0000 0.14510  0.04850  0.78533  Biso   1.000  C
  H658     1.0000 0.15010  0.06980  0.79060  Biso   1.000  H
  C812     1.0000 0.08650  0.00930  0.74733  Biso   1.000  C
  C813     1.0000 0.27220  0.10692  0.89953  Biso   1.000  C
  C814     1.0000 0.27070  0.13590  0.88812  Biso   1.000  C
  H659     1.0000 0.26850  0.13500  0.87350  Biso   1.000  H
  C815     1.0000 0.27230  0.16627  0.89804  Biso   1.000  C
  H660     1.0000 0.27120  0.18610  0.89020  Biso   1.000  H
  C816     1.0000 0.27540  0.16763  0.91939  Biso   1.000  C
  C817     1.0000 0.27690  0.13860  0.93080  Biso   1.000  C
  H661     1.0000 0.27910  0.13960  0.94540  Biso   1.000  H
  C818     1.0000 0.27540  0.10828  0.92088  Biso   1.000  C
  H662     1.0000 0.27640  0.08850  0.92870  Biso   1.000  H
  C819     1.0000 0.27750  0.20079  0.93010  Biso   1.000  C
  C820     1.0000 0.26280  0.22840  0.92124  Biso   1.000  C
  H663     1.0000 0.25270  0.22680  0.90800  Biso   1.000  H
  C821     1.0000 0.26300  0.25840  0.93168  Biso   1.000  C
  H664     1.0000 0.25300  0.27720  0.92560  Biso   1.000  H
  C822     1.0000 0.27780  0.26070  0.95098  Biso   1.000  C
  C823     1.0000 0.29240  0.23310  0.95983  Biso   1.000  C
  H665     1.0000 0.30250  0.23470  0.97300  Biso   1.000  H
  C824     1.0000 0.29220  0.20310  0.94940  Biso   1.000  C
  H666     1.0000 0.30220  0.18430  0.95550  Biso   1.000  H
  C825     1.0000 0.27780  0.29230  0.96240  Biso   1.000  C
  Co31     1.0000 0.63862  0.25862  0.96694  Biso   1.000  Co
  Co32     1.0000 0.95916  0.03282  0.72160  Biso   1.000  Co
  S31      1.0000 0.59044  0.29819  0.93879  Biso   1.000  S
  S32      1.0000 0.92536  0.06287  0.68257  Biso   1.000  S
  O166     1.0000 0.61780  0.27660  0.93923  Biso   1.000  O
  O167     1.0000 0.57930  0.30780  0.91859  Biso   1.000  O
  O168     1.0000 0.59104  0.25040  0.97716  Biso   1.000  O
  O169     1.0000 0.63557  0.30717  0.97772  Biso   1.000  O
  O170     1.0000 0.92610  0.06160  0.70494  Biso   1.000  O
  O171     1.0000 0.90170  0.08470  0.67318  Biso   1.000  O
  O172     1.0000 0.94900  0.99380  0.70131  Biso   1.000  O
  O173     1.0000 0.64200  0.21270  0.95419  Biso   1.000  O
  O174     1.0000 0.61830  0.18160  0.97830  Biso   1.000  O
  O175     1.0000 0.92180  0.01840  0.74004  Biso   1.000  O
  O176     1.0000 0.92870  0.96630  0.74193  Biso   1.000  O
  O177     1.0000 0.73470  0.68550  0.95485  Biso   1.000  O
  O178     1.0000 0.70720  0.70790  0.97846  Biso   1.000  O
  C826     1.0000 0.56030  0.25990  0.96920  Biso   1.000  C
  C827     1.0000 0.55760  0.28080  0.95226  Biso   1.000  C
  C828     1.0000 0.52670  0.28910  0.94458  Biso   1.000  C
  H667     1.0000 0.52490  0.30330  0.93300  Biso   1.000  H
  C829     1.0000 0.49846  0.27640  0.95383  Biso   1.000  C
  C830     1.0000 0.50120  0.25550  0.97075  Biso   1.000  C
  H668     1.0000 0.48190  0.24690  0.97710  Biso   1.000  H
  C831     1.0000 0.53210  0.24730  0.97843  Biso   1.000  C
  C832     1.0000 0.46490  0.28440  0.94542  Biso   1.000  C
  C833     1.0000 0.46600  0.30470  0.92588  Biso   1.000  C
  H669     1.0000 0.44340  0.30900  0.92120  Biso   1.000  H
  H670     1.0000 0.47720  0.32560  0.92860  Biso   1.000  H
  H671     1.0000 0.47800  0.29250  0.91520  Biso   1.000  H
  C834     1.0000 0.44440  0.30270  0.96140  Biso   1.000  C
  H672     1.0000 0.42260  0.30770  0.95570  Biso   1.000  H
  H673     1.0000 0.44190  0.28890  0.97370  Biso   1.000  H
  H674     1.0000 0.45550  0.32330  0.96520  Biso   1.000  H
  C835     1.0000 0.44610  0.25250  0.94040  Biso   1.000  C
  H675     1.0000 0.42430  0.25810  0.93500  Biso   1.000  H
  H676     1.0000 0.45850  0.23980  0.93010  Biso   1.000  H
  H677     1.0000 0.44370  0.23940  0.95300  Biso   1.000  H
  C836     1.0000 0.62320  0.33660  0.96840  Biso   1.000  C
  C837     1.0000 0.60260  0.33473  0.95130  Biso   1.000  C
  C838     1.0000 0.58620  0.36280  0.94441  Biso   1.000  C
  H678     1.0000 0.57210  0.36150  0.93270  Biso   1.000  H
  C839     1.0000 0.59040  0.39260  0.95462  Biso   1.000  C
  C840     1.0000 0.61100  0.39440  0.97173  Biso   1.000  C
  H679     1.0000 0.61390  0.41490  0.97870  Biso   1.000  H
  C841     1.0000 0.62740  0.36640  0.97861  Biso   1.000  C
  C842     1.0000 0.57040  0.42230  0.94869  Biso   1.000  C
  C843     1.0000 0.55030  0.41700  0.92929  Biso   1.000  C
  H680     1.0000 0.53780  0.43710  0.92610  Biso   1.000  H
  H681     1.0000 0.56510  0.41190  0.91780  Biso   1.000  H
  H682     1.0000 0.53500  0.39860  0.93140  Biso   1.000  H
  C844     1.0000 0.54600  0.43110  0.96598  Biso   1.000  C
  H683     1.0000 0.53310  0.45050  0.96190  Biso   1.000  H
  H684     1.0000 0.53110  0.41240  0.96840  Biso   1.000  H
  H685     1.0000 0.55820  0.43590  0.97870  Biso   1.000  H
  C845     1.0000 0.59230  0.45240  0.94580  Biso   1.000  C
  H686     1.0000 0.57870  0.47140  0.94200  Biso   1.000  H
  H687     1.0000 0.60390  0.45710  0.95870  Biso   1.000  H
  H688     1.0000 0.60840  0.44800  0.93490  Biso   1.000  H
  C846     1.0000 0.93140  0.99440  0.68205  Biso   1.000  C
  C847     1.0000 0.91910  0.02320  0.67333  Biso   1.000  C
  C848     1.0000 0.89950  0.02170  0.65577  Biso   1.000  C
  H689     1.0000 0.89110  0.04140  0.64980  Biso   1.000  H
  C849     1.0000 0.89220  0.99130  0.64693  Biso   1.000  C
  C850     1.0000 0.90440  0.96250  0.65565  Biso   1.000  C
  H690     1.0000 0.89940  0.94170  0.64960  Biso   1.000  H
  C851     1.0000 0.92410  0.96400  0.67321  Biso   1.000  C
  C852     1.0000 0.87230  0.99000  0.62723  Biso   1.000  C
  C853     1.0000 0.83920  0.00670  0.62970  Biso   1.000  C
  H691     1.0000 0.82700  0.00540  0.61660  Biso   1.000  H
  H692     1.0000 0.82650  0.99560  0.64050  Biso   1.000  H
  H693     1.0000 0.84250  0.02990  0.63340  Biso   1.000  H
  C854     1.0000 0.89020  0.00810  0.60993  Biso   1.000  C
  H694     1.0000 0.87690  0.00700  0.59730  Biso   1.000  H
  H695     1.0000 0.89350  0.03120  0.61380  Biso   1.000  H
  H696     1.0000 0.91160  0.99760  0.60750  Biso   1.000  H
  C855     1.0000 0.86620  0.95510  0.62000  Biso   1.000  C
  H697     1.0000 0.85330  0.95540  0.60720  Biso   1.000  H
  H698     1.0000 0.88740  0.94410  0.61750  Biso   1.000  H
  H699     1.0000 0.85400  0.94300  0.63070  Biso   1.000  H
  C856     1.0000 0.63360  0.18540  0.96186  Biso   1.000  C
  C857     1.0000 0.64170  0.15540  0.94999  Biso   1.000  C
  C858     1.0000 0.65750  0.15784  0.93101  Biso   1.000  C
  H700     1.0000 0.66220  0.17890  0.92530  Biso   1.000  H
  C859     1.0000 0.66650  0.12940  0.92039  Biso   1.000  C
  H701     1.0000 0.67730  0.13110  0.90740  Biso   1.000  H
  C860     1.0000 0.65970  0.09859  0.92874  Biso   1.000  C
  C861     1.0000 0.64390  0.09614  0.94772  Biso   1.000  C
  H702     1.0000 0.63930  0.07510  0.95340  Biso   1.000  H
  C862     1.0000 0.63490  0.12450  0.95834  Biso   1.000  C
  H703     1.0000 0.62410  0.12290  0.97130  Biso   1.000  H
  C863     1.0000 0.67200  0.06790  0.91797  Biso   1.000  C
  C864     1.0000 0.67370  0.06690  0.89656  Biso   1.000  C
  H704     1.0000 0.66650  0.08530  0.88870  Biso   1.000  H
  C865     1.0000 0.68600  0.03900  0.88672  Biso   1.000  C
  H705     1.0000 0.68720  0.03840  0.87210  Biso   1.000  H
  C866     1.0000 0.69660  0.01220  0.89829  Biso   1.000  C
  C867     1.0000 0.69480  0.01320  0.91971  Biso   1.000  C
  H706     1.0000 0.70200  0.99480  0.92760  Biso   1.000  H
  C868     1.0000 0.68250  0.04100  0.92955  Biso   1.000  C
  H707     1.0000 0.68130  0.04170  0.94420  Biso   1.000  H
  C869     1.0000 0.71230  0.98308  0.88758  Biso   1.000  C
  C870     1.0000 0.73190  0.98775  0.87019  Biso   1.000  C
  H708     1.0000 0.73320  0.00890  0.86400  Biso   1.000  H
  C871     1.0000 0.74950  0.96145  0.86192  Biso   1.000  C
  C872     1.0000 0.74750  0.93047  0.87104  Biso   1.000  C
  H709     1.0000 0.75950  0.91250  0.86540  Biso   1.000  H
  C873     1.0000 0.72800  0.92579  0.88842  Biso   1.000  C
  C874     1.0000 0.71040  0.95209  0.89670  Biso   1.000  C
  H710     1.0000 0.69710  0.94890  0.90860  Biso   1.000  H
  C875     1.0000 0.77110  0.96690  0.84345  Biso   1.000  C
  C876     1.0000 0.78890  0.99610  0.84144  Biso   1.000  C
  H711     1.0000 0.78630  0.01320  0.85130  Biso   1.000  H
  C877     1.0000 0.81040  0.00020  0.82494  Biso   1.000  C
  H712     1.0000 0.82250  0.02010  0.82360  Biso   1.000  H
  C878     1.0000 0.81410  0.97520  0.81046  Biso   1.000  C
  C879     1.0000 0.79640  0.94610  0.81247  Biso   1.000  C
  H713     1.0000 0.79890  0.92900  0.80260  Biso   1.000  H
  C880     1.0000 0.77480  0.94190  0.82897  Biso   1.000  C
  H714     1.0000 0.76270  0.92200  0.83030  Biso   1.000  H
  C881     1.0000 0.83840  0.97900  0.79289  Biso   1.000  C
  C882     1.0000 0.84580  0.01020  0.78524  Biso   1.000  C
  H715     1.0000 0.83450  0.02900  0.79040  Biso   1.000  H
  C883     1.0000 0.86970  0.01390  0.77004  Biso   1.000  C
  H716     1.0000 0.87470  0.03520  0.76480  Biso   1.000  H
  C884     1.0000 0.88620  0.98640  0.76248  Biso   1.000  C
  C885     1.0000 0.87880  0.95520  0.77012  Biso   1.000  C
  H717     1.0000 0.89010  0.93640  0.76500  Biso   1.000  H
  C886     1.0000 0.85490  0.95150  0.78533  Biso   1.000  C
  H718     1.0000 0.84990  0.93020  0.79060  Biso   1.000  H
  C887     1.0000 0.91350  0.99070  0.74733  Biso   1.000  C
  C888     1.0000 0.72780  0.89308  0.89953  Biso   1.000  C
  C889     1.0000 0.72930  0.86410  0.88812  Biso   1.000  C
  H719     1.0000 0.73150  0.86500  0.87350  Biso   1.000  H
  C890     1.0000 0.72770  0.83373  0.89804  Biso   1.000  C
  H720     1.0000 0.72880  0.81390  0.89020  Biso   1.000  H
  C891     1.0000 0.72460  0.83237  0.91939  Biso   1.000  C
  C892     1.0000 0.72310  0.86140  0.93080  Biso   1.000  C
  H721     1.0000 0.72090  0.86040  0.94540  Biso   1.000  H
  C893     1.0000 0.72460  0.89172  0.92088  Biso   1.000  C
  H722     1.0000 0.72360  0.91150  0.92870  Biso   1.000  H
  C894     1.0000 0.72250  0.79921  0.93010  Biso   1.000  C
  C895     1.0000 0.73720  0.77160  0.92124  Biso   1.000  C
  H723     1.0000 0.74730  0.77320  0.90800  Biso   1.000  H
  C896     1.0000 0.73700  0.74160  0.93168  Biso   1.000  C
  H724     1.0000 0.74700  0.72280  0.92560  Biso   1.000  H
  C897     1.0000 0.72220  0.73930  0.95098  Biso   1.000  C
  C898     1.0000 0.70760  0.76690  0.95983  Biso   1.000  C
  H725     1.0000 0.69750  0.76530  0.97300  Biso   1.000  H
  C899     1.0000 0.70780  0.79690  0.94940  Biso   1.000  C
  H726     1.0000 0.69780  0.81570  0.95550  Biso   1.000  H
  C900     1.0000 0.72220  0.70770  0.96240  Biso   1.000  C
  Co33     1.0000 0.25862  0.36138  0.03306  Biso   1.000  Co
  Co34     1.0000 0.03282  0.04084  0.27840  Biso   1.000  Co
  S33      1.0000 0.29819  0.40956  0.06121  Biso   1.000  S
  S34      1.0000 0.06287  0.07464  0.31743  Biso   1.000  S
  O179     1.0000 0.27660  0.38220  0.06077  Biso   1.000  O
  O180     1.0000 0.30780  0.42070  0.08141  Biso   1.000  O
  O181     1.0000 0.25040  0.40896  0.02284  Biso   1.000  O
  O182     1.0000 0.30717  0.36443  0.02228  Biso   1.000  O
  O183     1.0000 0.06160  0.07390  0.29506  Biso   1.000  O
  O184     1.0000 0.08470  0.09830  0.32682  Biso   1.000  O
  O185     1.0000 0.99380  0.05100  0.29869  Biso   1.000  O
  O186     1.0000 0.21270  0.35800  0.04581  Biso   1.000  O
  O187     1.0000 0.18160  0.38170  0.02170  Biso   1.000  O
  O188     1.0000 0.01840  0.07820  0.25996  Biso   1.000  O
  O189     1.0000 0.96630  0.07130  0.25807  Biso   1.000  O
  O190     1.0000 0.68550  0.26530  0.04515  Biso   1.000  O
  O191     1.0000 0.70790  0.29280  0.02154  Biso   1.000  O
  C901     1.0000 0.25990  0.43970  0.03080  Biso   1.000  C
  C902     1.0000 0.28080  0.44240  0.04774  Biso   1.000  C
  C903     1.0000 0.28910  0.47330  0.05542  Biso   1.000  C
  H727     1.0000 0.30330  0.47510  0.06700  Biso   1.000  H
  C904     1.0000 0.27640  0.50154  0.04617  Biso   1.000  C
  C905     1.0000 0.25550  0.49880  0.02925  Biso   1.000  C
  H728     1.0000 0.24690  0.51810  0.02290  Biso   1.000  H
  C906     1.0000 0.24730  0.46790  0.02157  Biso   1.000  C
  C907     1.0000 0.28440  0.53510  0.05458  Biso   1.000  C
  C908     1.0000 0.30470  0.53400  0.07412  Biso   1.000  C
  H729     1.0000 0.30900  0.55660  0.07880  Biso   1.000  H
  H730     1.0000 0.32560  0.52280  0.07140  Biso   1.000  H
  H731     1.0000 0.29250  0.52200  0.08480  Biso   1.000  H
  C909     1.0000 0.30270  0.55560  0.03860  Biso   1.000  C
  H732     1.0000 0.30770  0.57740  0.04430  Biso   1.000  H
  H733     1.0000 0.28890  0.55810  0.02630  Biso   1.000  H
  H734     1.0000 0.32330  0.54450  0.03480  Biso   1.000  H
  C910     1.0000 0.25250  0.55390  0.05960  Biso   1.000  C
  H735     1.0000 0.25810  0.57570  0.06500  Biso   1.000  H
  H736     1.0000 0.23980  0.54150  0.06990  Biso   1.000  H
  H737     1.0000 0.23940  0.55630  0.04700  Biso   1.000  H
  C911     1.0000 0.33660  0.37680  0.03160  Biso   1.000  C
  C912     1.0000 0.33473  0.39740  0.04870  Biso   1.000  C
  C913     1.0000 0.36280  0.41380  0.05559  Biso   1.000  C
  H738     1.0000 0.36150  0.42790  0.06730  Biso   1.000  H
  C914     1.0000 0.39260  0.40960  0.04538  Biso   1.000  C
  C915     1.0000 0.39440  0.38900  0.02827  Biso   1.000  C
  H739     1.0000 0.41490  0.38610  0.02130  Biso   1.000  H
  C916     1.0000 0.36640  0.37260  0.02139  Biso   1.000  C
  C917     1.0000 0.42230  0.42960  0.05131  Biso   1.000  C
  C918     1.0000 0.41700  0.44970  0.07071  Biso   1.000  C
  H740     1.0000 0.43710  0.46220  0.07390  Biso   1.000  H
  H741     1.0000 0.41190  0.43490  0.08220  Biso   1.000  H
  H742     1.0000 0.39860  0.46500  0.06860  Biso   1.000  H
  C919     1.0000 0.43110  0.45400  0.03402  Biso   1.000  C
  H743     1.0000 0.45050  0.46690  0.03810  Biso   1.000  H
  H744     1.0000 0.41240  0.46890  0.03160  Biso   1.000  H
  H745     1.0000 0.43590  0.44180  0.02130  Biso   1.000  H
  C920     1.0000 0.45240  0.40770  0.05420  Biso   1.000  C
  H746     1.0000 0.47140  0.42130  0.05800  Biso   1.000  H
  H747     1.0000 0.45710  0.39610  0.04130  Biso   1.000  H
  H748     1.0000 0.44800  0.39160  0.06510  Biso   1.000  H
  C921     1.0000 0.99440  0.06860  0.31795  Biso   1.000  C
  C922     1.0000 0.02320  0.08090  0.32667  Biso   1.000  C
  C923     1.0000 0.02170  0.10050  0.34423  Biso   1.000  C
  H749     1.0000 0.04140  0.10890  0.35020  Biso   1.000  H
  C924     1.0000 0.99130  0.10780  0.35307  Biso   1.000  C
  C925     1.0000 0.96250  0.09560  0.34435  Biso   1.000  C
  H750     1.0000 0.94170  0.10060  0.35040  Biso   1.000  H
  C926     1.0000 0.96400  0.07590  0.32679  Biso   1.000  C
  C927     1.0000 0.99000  0.12770  0.37277  Biso   1.000  C
  C928     1.0000 0.00670  0.16080  0.37030  Biso   1.000  C
  H751     1.0000 0.00540  0.17300  0.38340  Biso   1.000  H
  H752     1.0000 0.99560  0.17350  0.35950  Biso   1.000  H
  H753     1.0000 0.02990  0.15750  0.36660  Biso   1.000  H
  C929     1.0000 0.00810  0.10980  0.39007  Biso   1.000  C
  H754     1.0000 0.00700  0.12310  0.40270  Biso   1.000  H
  H755     1.0000 0.03120  0.10650  0.38620  Biso   1.000  H
  H756     1.0000 0.99760  0.08840  0.39250  Biso   1.000  H
  C930     1.0000 0.95510  0.13380  0.38000  Biso   1.000  C
  H757     1.0000 0.95540  0.14670  0.39280  Biso   1.000  H
  H758     1.0000 0.94410  0.11260  0.38250  Biso   1.000  H
  H759     1.0000 0.94300  0.14600  0.36930  Biso   1.000  H
  C931     1.0000 0.18540  0.36640  0.03814  Biso   1.000  C
  C932     1.0000 0.15540  0.35830  0.05001  Biso   1.000  C
  C933     1.0000 0.15784  0.34250  0.06899  Biso   1.000  C
  H760     1.0000 0.17890  0.33780  0.07470  Biso   1.000  H
  C934     1.0000 0.12940  0.33350  0.07961  Biso   1.000  C
  H761     1.0000 0.13110  0.32270  0.09260  Biso   1.000  H
  C935     1.0000 0.09859  0.34030  0.07126  Biso   1.000  C
  C936     1.0000 0.09614  0.35610  0.05228  Biso   1.000  C
  H762     1.0000 0.07510  0.36070  0.04660  Biso   1.000  H
  C937     1.0000 0.12450  0.36510  0.04166  Biso   1.000  C
  H763     1.0000 0.12290  0.37590  0.02870  Biso   1.000  H
  C938     1.0000 0.06790  0.32800  0.08203  Biso   1.000  C
  C939     1.0000 0.06690  0.32630  0.10344  Biso   1.000  C
  H764     1.0000 0.08530  0.33350  0.11130  Biso   1.000  H
  C940     1.0000 0.03900  0.31400  0.11328  Biso   1.000  C
  H765     1.0000 0.03840  0.31280  0.12790  Biso   1.000  H
  C941     1.0000 0.01220  0.30340  0.10171  Biso   1.000  C
  C942     1.0000 0.01320  0.30520  0.08029  Biso   1.000  C
  H766     1.0000 0.99480  0.29800  0.07240  Biso   1.000  H
  C943     1.0000 0.04100  0.31750  0.07045  Biso   1.000  C
  H767     1.0000 0.04170  0.31870  0.05580  Biso   1.000  H
  C944     1.0000 0.98308  0.28770  0.11242  Biso   1.000  C
  C945     1.0000 0.98775  0.26810  0.12981  Biso   1.000  C
  H768     1.0000 0.00890  0.26680  0.13600  Biso   1.000  H
  C946     1.0000 0.96145  0.25050  0.13808  Biso   1.000  C
  C947     1.0000 0.93047  0.25250  0.12896  Biso   1.000  C
  H769     1.0000 0.91250  0.24050  0.13460  Biso   1.000  H
  C948     1.0000 0.92579  0.27200  0.11158  Biso   1.000  C
  C949     1.0000 0.95209  0.28960  0.10330  Biso   1.000  C
  H770     1.0000 0.94890  0.30290  0.09140  Biso   1.000  H
  C950     1.0000 0.96690  0.22890  0.15655  Biso   1.000  C
  C951     1.0000 0.99610  0.21110  0.15856  Biso   1.000  C
  H771     1.0000 0.01320  0.21370  0.14870  Biso   1.000  H
  C952     1.0000 0.00020  0.18960  0.17506  Biso   1.000  C
  H772     1.0000 0.02010  0.17750  0.17640  Biso   1.000  H
  C953     1.0000 0.97520  0.18590  0.18954  Biso   1.000  C
  C954     1.0000 0.94610  0.20360  0.18753  Biso   1.000  C
  H773     1.0000 0.92900  0.20110  0.19740  Biso   1.000  H
  C955     1.0000 0.94190  0.22520  0.17103  Biso   1.000  C
  H774     1.0000 0.92200  0.23730  0.16970  Biso   1.000  H
  C956     1.0000 0.97900  0.16160  0.20711  Biso   1.000  C
  C957     1.0000 0.01020  0.15420  0.21476  Biso   1.000  C
  H775     1.0000 0.02900  0.16550  0.20960  Biso   1.000  H
  C958     1.0000 0.01390  0.13030  0.22996  Biso   1.000  C
  H776     1.0000 0.03520  0.12530  0.23520  Biso   1.000  H
  C959     1.0000 0.98640  0.11380  0.23752  Biso   1.000  C
  C960     1.0000 0.95520  0.12120  0.22988  Biso   1.000  C
  H777     1.0000 0.93640  0.10990  0.23500  Biso   1.000  H
  C961     1.0000 0.95150  0.14510  0.21467  Biso   1.000  C
  H778     1.0000 0.93020  0.15010  0.20940  Biso   1.000  H
  C962     1.0000 0.99070  0.08650  0.25267  Biso   1.000  C
  C963     1.0000 0.89308  0.27220  0.10047  Biso   1.000  C
  C964     1.0000 0.86410  0.27070  0.11188  Biso   1.000  C
  H779     1.0000 0.86500  0.26850  0.12650  Biso   1.000  H
  C965     1.0000 0.83373  0.27230  0.10196  Biso   1.000  C
  H780     1.0000 0.81390  0.27120  0.10980  Biso   1.000  H
  C966     1.0000 0.83237  0.27540  0.08061  Biso   1.000  C
  C967     1.0000 0.86140  0.27690  0.06920  Biso   1.000  C
  H781     1.0000 0.86040  0.27910  0.05460  Biso   1.000  H
  C968     1.0000 0.89172  0.27540  0.07912  Biso   1.000  C
  H782     1.0000 0.91150  0.27640  0.07130  Biso   1.000  H
  C969     1.0000 0.79921  0.27750  0.06990  Biso   1.000  C
  C970     1.0000 0.77160  0.26280  0.07876  Biso   1.000  C
  H783     1.0000 0.77320  0.25270  0.09200  Biso   1.000  H
  C971     1.0000 0.74160  0.26300  0.06832  Biso   1.000  C
  H784     1.0000 0.72280  0.25300  0.07440  Biso   1.000  H
  C972     1.0000 0.73930  0.27780  0.04902  Biso   1.000  C
  C973     1.0000 0.76690  0.29240  0.04017  Biso   1.000  C
  H785     1.0000 0.76530  0.30250  0.02700  Biso   1.000  H
  C974     1.0000 0.79690  0.29220  0.05060  Biso   1.000  C
  H786     1.0000 0.81570  0.30220  0.04450  Biso   1.000  H
  C975     1.0000 0.70770  0.27780  0.03760  Biso   1.000  C
  Co35     1.0000 0.74138  0.63862  0.03306  Biso   1.000  Co
  Co36     1.0000 0.96718  0.95916  0.27840  Biso   1.000  Co
  S35      1.0000 0.70181  0.59044  0.06121  Biso   1.000  S
  S36      1.0000 0.93713  0.92536  0.31743  Biso   1.000  S
  O192     1.0000 0.72340  0.61780  0.06077  Biso   1.000  O
  O193     1.0000 0.69220  0.57930  0.08141  Biso   1.000  O
  O194     1.0000 0.74960  0.59104  0.02284  Biso   1.000  O
  O195     1.0000 0.69283  0.63557  0.02228  Biso   1.000  O
  O196     1.0000 0.93840  0.92610  0.29506  Biso   1.000  O
  O197     1.0000 0.91530  0.90170  0.32682  Biso   1.000  O
  O198     1.0000 0.00620  0.94900  0.29869  Biso   1.000  O
  O199     1.0000 0.78730  0.64200  0.04581  Biso   1.000  O
  O200     1.0000 0.81840  0.61830  0.02170  Biso   1.000  O
  O201     1.0000 0.98160  0.92180  0.25996  Biso   1.000  O
  O202     1.0000 0.03370  0.92870  0.25807  Biso   1.000  O
  O203     1.0000 0.31450  0.73470  0.04515  Biso   1.000  O
  O204     1.0000 0.29210  0.70720  0.02154  Biso   1.000  O
  C976     1.0000 0.74010  0.56030  0.03080  Biso   1.000  C
  C977     1.0000 0.71920  0.55760  0.04774  Biso   1.000  C
  C978     1.0000 0.71090  0.52670  0.05542  Biso   1.000  C
  H787     1.0000 0.69670  0.52490  0.06700  Biso   1.000  H
  C979     1.0000 0.72360  0.49846  0.04617  Biso   1.000  C
  C980     1.0000 0.74450  0.50120  0.02925  Biso   1.000  C
  H788     1.0000 0.75310  0.48190  0.02290  Biso   1.000  H
  C981     1.0000 0.75270  0.53210  0.02157  Biso   1.000  C
  C982     1.0000 0.71560  0.46490  0.05458  Biso   1.000  C
  C983     1.0000 0.69530  0.46600  0.07412  Biso   1.000  C
  H789     1.0000 0.69100  0.44340  0.07880  Biso   1.000  H
  H790     1.0000 0.67440  0.47720  0.07140  Biso   1.000  H
  H791     1.0000 0.70750  0.47800  0.08480  Biso   1.000  H
  C984     1.0000 0.69730  0.44440  0.03860  Biso   1.000  C
  H792     1.0000 0.69230  0.42260  0.04430  Biso   1.000  H
  H793     1.0000 0.71110  0.44190  0.02630  Biso   1.000  H
  H794     1.0000 0.67670  0.45550  0.03480  Biso   1.000  H
  C985     1.0000 0.74750  0.44610  0.05960  Biso   1.000  C
  H795     1.0000 0.74190  0.42430  0.06500  Biso   1.000  H
  H796     1.0000 0.76020  0.45850  0.06990  Biso   1.000  H
  H797     1.0000 0.76060  0.44370  0.04700  Biso   1.000  H
  C986     1.0000 0.66340  0.62320  0.03160  Biso   1.000  C
  C987     1.0000 0.66527  0.60260  0.04870  Biso   1.000  C
  C988     1.0000 0.63720  0.58620  0.05559  Biso   1.000  C
  H798     1.0000 0.63850  0.57210  0.06730  Biso   1.000  H
  C989     1.0000 0.60740  0.59040  0.04538  Biso   1.000  C
  C990     1.0000 0.60560  0.61100  0.02827  Biso   1.000  C
  H799     1.0000 0.58510  0.61390  0.02130  Biso   1.000  H
  C991     1.0000 0.63360  0.62740  0.02139  Biso   1.000  C
  C992     1.0000 0.57770  0.57040  0.05131  Biso   1.000  C
  C993     1.0000 0.58300  0.55030  0.07071  Biso   1.000  C
  H800     1.0000 0.56290  0.53780  0.07390  Biso   1.000  H
  H801     1.0000 0.58810  0.56510  0.08220  Biso   1.000  H
  H802     1.0000 0.60140  0.53500  0.06860  Biso   1.000  H
  C994     1.0000 0.56890  0.54600  0.03402  Biso   1.000  C
  H803     1.0000 0.54950  0.53310  0.03810  Biso   1.000  H
  H804     1.0000 0.58760  0.53110  0.03160  Biso   1.000  H
  H805     1.0000 0.56410  0.55820  0.02130  Biso   1.000  H
  C995     1.0000 0.54760  0.59230  0.05420  Biso   1.000  C
  H806     1.0000 0.52860  0.57870  0.05800  Biso   1.000  H
  H807     1.0000 0.54290  0.60390  0.04130  Biso   1.000  H
  H808     1.0000 0.55200  0.60840  0.06510  Biso   1.000  H
  C996     1.0000 0.00560  0.93140  0.31795  Biso   1.000  C
  C997     1.0000 0.97680  0.91910  0.32667  Biso   1.000  C
  C998     1.0000 0.97830  0.89950  0.34423  Biso   1.000  C
  H809     1.0000 0.95860  0.89110  0.35020  Biso   1.000  H
  C999     1.0000 0.00870  0.89220  0.35307  Biso   1.000  C
  C1000    1.0000 0.03750  0.90440  0.34435  Biso   1.000  C
  H810     1.0000 0.05830  0.89940  0.35040  Biso   1.000  H
  C1001    1.0000 0.03600  0.92410  0.32679  Biso   1.000  C
  C1002    1.0000 0.01000  0.87230  0.37277  Biso   1.000  C
  C1003    1.0000 0.99330  0.83920  0.37030  Biso   1.000  C
  H811     1.0000 0.99460  0.82700  0.38340  Biso   1.000  H
  H812     1.0000 0.00440  0.82650  0.35950  Biso   1.000  H
  H813     1.0000 0.97010  0.84250  0.36660  Biso   1.000  H
  C1004    1.0000 0.99190  0.89020  0.39007  Biso   1.000  C
  H814     1.0000 0.99300  0.87690  0.40270  Biso   1.000  H
  H815     1.0000 0.96880  0.89350  0.38620  Biso   1.000  H
  H816     1.0000 0.00240  0.91160  0.39250  Biso   1.000  H
  C1005    1.0000 0.04490  0.86620  0.38000  Biso   1.000  C
  H817     1.0000 0.04460  0.85330  0.39280  Biso   1.000  H
  H818     1.0000 0.05590  0.88740  0.38250  Biso   1.000  H
  H819     1.0000 0.05700  0.85400  0.36930  Biso   1.000  H
  C1006    1.0000 0.81460  0.63360  0.03814  Biso   1.000  C
  C1007    1.0000 0.84460  0.64170  0.05001  Biso   1.000  C
  C1008    1.0000 0.84216  0.65750  0.06899  Biso   1.000  C
  H820     1.0000 0.82110  0.66220  0.07470  Biso   1.000  H
  C1009    1.0000 0.87060  0.66650  0.07961  Biso   1.000  C
  H821     1.0000 0.86890  0.67730  0.09260  Biso   1.000  H
  C1010    1.0000 0.90141  0.65970  0.07126  Biso   1.000  C
  C1011    1.0000 0.90386  0.64390  0.05228  Biso   1.000  C
  H822     1.0000 0.92490  0.63930  0.04660  Biso   1.000  H
  C1012    1.0000 0.87550  0.63490  0.04166  Biso   1.000  C
  H823     1.0000 0.87710  0.62410  0.02870  Biso   1.000  H
  C1013    1.0000 0.93210  0.67200  0.08203  Biso   1.000  C
  C1014    1.0000 0.93310  0.67370  0.10344  Biso   1.000  C
  H824     1.0000 0.91470  0.66650  0.11130  Biso   1.000  H
  C1015    1.0000 0.96100  0.68600  0.11328  Biso   1.000  C
  H825     1.0000 0.96160  0.68720  0.12790  Biso   1.000  H
  C1016    1.0000 0.98780  0.69660  0.10171  Biso   1.000  C
  C1017    1.0000 0.98680  0.69480  0.08029  Biso   1.000  C
  H826     1.0000 0.00520  0.70200  0.07240  Biso   1.000  H
  C1018    1.0000 0.95900  0.68250  0.07045  Biso   1.000  C
  H827     1.0000 0.95830  0.68130  0.05580  Biso   1.000  H
  C1019    1.0000 0.01692  0.71230  0.11242  Biso   1.000  C
  C1020    1.0000 0.01225  0.73190  0.12981  Biso   1.000  C
  H828     1.0000 0.99110  0.73320  0.13600  Biso   1.000  H
  C1021    1.0000 0.03855  0.74950  0.13808  Biso   1.000  C
  C1022    1.0000 0.06953  0.74750  0.12896  Biso   1.000  C
  H829     1.0000 0.08750  0.75950  0.13460  Biso   1.000  H
  C1023    1.0000 0.07421  0.72800  0.11158  Biso   1.000  C
  C1024    1.0000 0.04791  0.71040  0.10330  Biso   1.000  C
  H830     1.0000 0.05110  0.69710  0.09140  Biso   1.000  H
  C1025    1.0000 0.03310  0.77110  0.15655  Biso   1.000  C
  C1026    1.0000 0.00390  0.78890  0.15856  Biso   1.000  C
  H831     1.0000 0.98680  0.78630  0.14870  Biso   1.000  H
  C1027    1.0000 0.99980  0.81040  0.17506  Biso   1.000  C
  H832     1.0000 0.97990  0.82250  0.17640  Biso   1.000  H
  C1028    1.0000 0.02480  0.81410  0.18954  Biso   1.000  C
  C1029    1.0000 0.05390  0.79640  0.18753  Biso   1.000  C
  H833     1.0000 0.07100  0.79890  0.19740  Biso   1.000  H
  C1030    1.0000 0.05810  0.77480  0.17103  Biso   1.000  C
  H834     1.0000 0.07800  0.76270  0.16970  Biso   1.000  H
  C1031    1.0000 0.02100  0.83840  0.20711  Biso   1.000  C
  C1032    1.0000 0.98980  0.84580  0.21476  Biso   1.000  C
  H835     1.0000 0.97100  0.83450  0.20960  Biso   1.000  H
  C1033    1.0000 0.98610  0.86970  0.22996  Biso   1.000  C
  H836     1.0000 0.96480  0.87470  0.23520  Biso   1.000  H
  C1034    1.0000 0.01360  0.88620  0.23752  Biso   1.000  C
  C1035    1.0000 0.04480  0.87880  0.22988  Biso   1.000  C
  H837     1.0000 0.06360  0.89010  0.23500  Biso   1.000  H
  C1036    1.0000 0.04850  0.85490  0.21467  Biso   1.000  C
  H838     1.0000 0.06980  0.84990  0.20940  Biso   1.000  H
  C1037    1.0000 0.00930  0.91350  0.25267  Biso   1.000  C
  C1038    1.0000 0.10692  0.72780  0.10047  Biso   1.000  C
  C1039    1.0000 0.13590  0.72930  0.11188  Biso   1.000  C
  H839     1.0000 0.13500  0.73150  0.12650  Biso   1.000  H
  C1040    1.0000 0.16627  0.72770  0.10196  Biso   1.000  C
  H840     1.0000 0.18610  0.72880  0.10980  Biso   1.000  H
  C1041    1.0000 0.16763  0.72460  0.08061  Biso   1.000  C
  C1042    1.0000 0.13860  0.72310  0.06920  Biso   1.000  C
  H841     1.0000 0.13960  0.72090  0.05460  Biso   1.000  H
  C1043    1.0000 0.10828  0.72460  0.07912  Biso   1.000  C
  H842     1.0000 0.08850  0.72360  0.07130  Biso   1.000  H
  C1044    1.0000 0.20079  0.72250  0.06990  Biso   1.000  C
  C1045    1.0000 0.22840  0.73720  0.07876  Biso   1.000  C
  H843     1.0000 0.22680  0.74730  0.09200  Biso   1.000  H
  C1046    1.0000 0.25840  0.73700  0.06832  Biso   1.000  C
  H844     1.0000 0.27720  0.74700  0.07440  Biso   1.000  H
  C1047    1.0000 0.26070  0.72220  0.04902  Biso   1.000  C
  C1048    1.0000 0.23310  0.70760  0.04017  Biso   1.000  C
  H845     1.0000 0.23470  0.69750  0.02700  Biso   1.000  H
  C1049    1.0000 0.20310  0.70780  0.05060  Biso   1.000  C
  H846     1.0000 0.18430  0.69780  0.04450  Biso   1.000  H
  C1050    1.0000 0.29230  0.72220  0.03760  Biso   1.000  C
  Co37     1.0000 0.63862  0.25862  0.03306  Biso   1.000  Co
  Co38     1.0000 0.95916  0.03282  0.27840  Biso   1.000  Co
  S37      1.0000 0.59044  0.29819  0.06121  Biso   1.000  S
  S38      1.0000 0.92536  0.06287  0.31743  Biso   1.000  S
  O205     1.0000 0.61780  0.27660  0.06077  Biso   1.000  O
  O206     1.0000 0.57930  0.30780  0.08141  Biso   1.000  O
  O207     1.0000 0.59104  0.25040  0.02284  Biso   1.000  O
  O208     1.0000 0.63557  0.30717  0.02228  Biso   1.000  O
  O209     1.0000 0.92610  0.06160  0.29506  Biso   1.000  O
  O210     1.0000 0.90170  0.08470  0.32682  Biso   1.000  O
  O211     1.0000 0.94900  0.99380  0.29869  Biso   1.000  O
  O212     1.0000 0.64200  0.21270  0.04581  Biso   1.000  O
  O213     1.0000 0.61830  0.18160  0.02170  Biso   1.000  O
  O214     1.0000 0.92180  0.01840  0.25996  Biso   1.000  O
  O215     1.0000 0.92870  0.96630  0.25807  Biso   1.000  O
  O216     1.0000 0.73470  0.68550  0.04515  Biso   1.000  O
  O217     1.0000 0.70720  0.70790  0.02154  Biso   1.000  O
  C1051    1.0000 0.56030  0.25990  0.03080  Biso   1.000  C
  C1052    1.0000 0.55760  0.28080  0.04774  Biso   1.000  C
  C1053    1.0000 0.52670  0.28910  0.05542  Biso   1.000  C
  H847     1.0000 0.52490  0.30330  0.06700  Biso   1.000  H
  C1054    1.0000 0.49846  0.27640  0.04617  Biso   1.000  C
  C1055    1.0000 0.50120  0.25550  0.02925  Biso   1.000  C
  H848     1.0000 0.48190  0.24690  0.02290  Biso   1.000  H
  C1056    1.0000 0.53210  0.24730  0.02157  Biso   1.000  C
  C1057    1.0000 0.46490  0.28440  0.05458  Biso   1.000  C
  C1058    1.0000 0.46600  0.30470  0.07412  Biso   1.000  C
  H849     1.0000 0.44340  0.30900  0.07880  Biso   1.000  H
  H850     1.0000 0.47720  0.32560  0.07140  Biso   1.000  H
  H851     1.0000 0.47800  0.29250  0.08480  Biso   1.000  H
  C1059    1.0000 0.44440  0.30270  0.03860  Biso   1.000  C
  H852     1.0000 0.42260  0.30770  0.04430  Biso   1.000  H
  H853     1.0000 0.44190  0.28890  0.02630  Biso   1.000  H
  H854     1.0000 0.45550  0.32330  0.03480  Biso   1.000  H
  C1060    1.0000 0.44610  0.25250  0.05960  Biso   1.000  C
  H855     1.0000 0.42430  0.25810  0.06500  Biso   1.000  H
  H856     1.0000 0.45850  0.23980  0.06990  Biso   1.000  H
  H857     1.0000 0.44370  0.23940  0.04700  Biso   1.000  H
  C1061    1.0000 0.62320  0.33660  0.03160  Biso   1.000  C
  C1062    1.0000 0.60260  0.33473  0.04870  Biso   1.000  C
  C1063    1.0000 0.58620  0.36280  0.05559  Biso   1.000  C
  H858     1.0000 0.57210  0.36150  0.06730  Biso   1.000  H
  C1064    1.0000 0.59040  0.39260  0.04538  Biso   1.000  C
  C1065    1.0000 0.61100  0.39440  0.02827  Biso   1.000  C
  H859     1.0000 0.61390  0.41490  0.02130  Biso   1.000  H
  C1066    1.0000 0.62740  0.36640  0.02139  Biso   1.000  C
  C1067    1.0000 0.57040  0.42230  0.05131  Biso   1.000  C
  C1068    1.0000 0.55030  0.41700  0.07071  Biso   1.000  C
  H860     1.0000 0.53780  0.43710  0.07390  Biso   1.000  H
  H861     1.0000 0.56510  0.41190  0.08220  Biso   1.000  H
  H862     1.0000 0.53500  0.39860  0.06860  Biso   1.000  H
  C1069    1.0000 0.54600  0.43110  0.03402  Biso   1.000  C
  H863     1.0000 0.53310  0.45050  0.03810  Biso   1.000  H
  H864     1.0000 0.53110  0.41240  0.03160  Biso   1.000  H
  H865     1.0000 0.55820  0.43590  0.02130  Biso   1.000  H
  C1070    1.0000 0.59230  0.45240  0.05420  Biso   1.000  C
  H866     1.0000 0.57870  0.47140  0.05800  Biso   1.000  H
  H867     1.0000 0.60390  0.45710  0.04130  Biso   1.000  H
  H868     1.0000 0.60840  0.44800  0.06510  Biso   1.000  H
  C1071    1.0000 0.93140  0.99440  0.31795  Biso   1.000  C
  C1072    1.0000 0.91910  0.02320  0.32667  Biso   1.000  C
  C1073    1.0000 0.89950  0.02170  0.34423  Biso   1.000  C
  H869     1.0000 0.89110  0.04140  0.35020  Biso   1.000  H
  C1074    1.0000 0.89220  0.99130  0.35307  Biso   1.000  C
  C1075    1.0000 0.90440  0.96250  0.34435  Biso   1.000  C
  H870     1.0000 0.89940  0.94170  0.35040  Biso   1.000  H
  C1076    1.0000 0.92410  0.96400  0.32679  Biso   1.000  C
  C1077    1.0000 0.87230  0.99000  0.37277  Biso   1.000  C
  C1078    1.0000 0.83920  0.00670  0.37030  Biso   1.000  C
  H871     1.0000 0.82700  0.00540  0.38340  Biso   1.000  H
  H872     1.0000 0.82650  0.99560  0.35950  Biso   1.000  H
  H873     1.0000 0.84250  0.02990  0.36660  Biso   1.000  H
  C1079    1.0000 0.89020  0.00810  0.39007  Biso   1.000  C
  H874     1.0000 0.87690  0.00700  0.40270  Biso   1.000  H
  H875     1.0000 0.89350  0.03120  0.38620  Biso   1.000  H
  H876     1.0000 0.91160  0.99760  0.39250  Biso   1.000  H
  C1080    1.0000 0.86620  0.95510  0.38000  Biso   1.000  C
  H877     1.0000 0.85330  0.95540  0.39280  Biso   1.000  H
  H878     1.0000 0.88740  0.94410  0.38250  Biso   1.000  H
  H879     1.0000 0.85400  0.94300  0.36930  Biso   1.000  H
  C1081    1.0000 0.63360  0.18540  0.03814  Biso   1.000  C
  C1082    1.0000 0.64170  0.15540  0.05001  Biso   1.000  C
  C1083    1.0000 0.65750  0.15784  0.06899  Biso   1.000  C
  H880     1.0000 0.66220  0.17890  0.07470  Biso   1.000  H
  C1084    1.0000 0.66650  0.12940  0.07961  Biso   1.000  C
  H881     1.0000 0.67730  0.13110  0.09260  Biso   1.000  H
  C1085    1.0000 0.65970  0.09859  0.07126  Biso   1.000  C
  C1086    1.0000 0.64390  0.09614  0.05228  Biso   1.000  C
  H882     1.0000 0.63930  0.07510  0.04660  Biso   1.000  H
  C1087    1.0000 0.63490  0.12450  0.04166  Biso   1.000  C
  H883     1.0000 0.62410  0.12290  0.02870  Biso   1.000  H
  C1088    1.0000 0.67200  0.06790  0.08203  Biso   1.000  C
  C1089    1.0000 0.67370  0.06690  0.10344  Biso   1.000  C
  H884     1.0000 0.66650  0.08530  0.11130  Biso   1.000  H
  C1090    1.0000 0.68600  0.03900  0.11328  Biso   1.000  C
  H885     1.0000 0.68720  0.03840  0.12790  Biso   1.000  H
  C1091    1.0000 0.69660  0.01220  0.10171  Biso   1.000  C
  C1092    1.0000 0.69480  0.01320  0.08029  Biso   1.000  C
  H886     1.0000 0.70200  0.99480  0.07240  Biso   1.000  H
  C1093    1.0000 0.68250  0.04100  0.07045  Biso   1.000  C
  H887     1.0000 0.68130  0.04170  0.05580  Biso   1.000  H
  C1094    1.0000 0.71230  0.98308  0.11242  Biso   1.000  C
  C1095    1.0000 0.73190  0.98775  0.12981  Biso   1.000  C
  H888     1.0000 0.73320  0.00890  0.13600  Biso   1.000  H
  C1096    1.0000 0.74950  0.96145  0.13808  Biso   1.000  C
  C1097    1.0000 0.74750  0.93047  0.12896  Biso   1.000  C
  H889     1.0000 0.75950  0.91250  0.13460  Biso   1.000  H
  C1098    1.0000 0.72800  0.92579  0.11158  Biso   1.000  C
  C1099    1.0000 0.71040  0.95209  0.10330  Biso   1.000  C
  H890     1.0000 0.69710  0.94890  0.09140  Biso   1.000  H
  C1100    1.0000 0.77110  0.96690  0.15655  Biso   1.000  C
  C1101    1.0000 0.78890  0.99610  0.15856  Biso   1.000  C
  H891     1.0000 0.78630  0.01320  0.14870  Biso   1.000  H
  C1102    1.0000 0.81040  0.00020  0.17506  Biso   1.000  C
  H892     1.0000 0.82250  0.02010  0.17640  Biso   1.000  H
  C1103    1.0000 0.81410  0.97520  0.18954  Biso   1.000  C
  C1104    1.0000 0.79640  0.94610  0.18753  Biso   1.000  C
  H893     1.0000 0.79890  0.92900  0.19740  Biso   1.000  H
  C1105    1.0000 0.77480  0.94190  0.17103  Biso   1.000  C
  H894     1.0000 0.76270  0.92200  0.16970  Biso   1.000  H
  C1106    1.0000 0.83840  0.97900  0.20711  Biso   1.000  C
  C1107    1.0000 0.84580  0.01020  0.21476  Biso   1.000  C
  H895     1.0000 0.83450  0.02900  0.20960  Biso   1.000  H
  C1108    1.0000 0.86970  0.01390  0.22996  Biso   1.000  C
  H896     1.0000 0.87470  0.03520  0.23520  Biso   1.000  H
  C1109    1.0000 0.88620  0.98640  0.23752  Biso   1.000  C
  C1110    1.0000 0.87880  0.95520  0.22988  Biso   1.000  C
  H897     1.0000 0.89010  0.93640  0.23500  Biso   1.000  H
  C1111    1.0000 0.85490  0.95150  0.21467  Biso   1.000  C
  H898     1.0000 0.84990  0.93020  0.20940  Biso   1.000  H
  C1112    1.0000 0.91350  0.99070  0.25267  Biso   1.000  C
  C1113    1.0000 0.72780  0.89308  0.10047  Biso   1.000  C
  C1114    1.0000 0.72930  0.86410  0.11188  Biso   1.000  C
  H899     1.0000 0.73150  0.86500  0.12650  Biso   1.000  H
  C1115    1.0000 0.72770  0.83373  0.10196  Biso   1.000  C
  H900     1.0000 0.72880  0.81390  0.10980  Biso   1.000  H
  C1116    1.0000 0.72460  0.83237  0.08061  Biso   1.000  C
  C1117    1.0000 0.72310  0.86140  0.06920  Biso   1.000  C
  H901     1.0000 0.72090  0.86040  0.05460  Biso   1.000  H
  C1118    1.0000 0.72460  0.89172  0.07912  Biso   1.000  C
  H902     1.0000 0.72360  0.91150  0.07130  Biso   1.000  H
  C1119    1.0000 0.72250  0.79921  0.06990  Biso   1.000  C
  C1120    1.0000 0.73720  0.77160  0.07876  Biso   1.000  C
  H903     1.0000 0.74730  0.77320  0.09200  Biso   1.000  H
  C1121    1.0000 0.73700  0.74160  0.06832  Biso   1.000  C
  H904     1.0000 0.74700  0.72280  0.07440  Biso   1.000  H
  C1122    1.0000 0.72220  0.73930  0.04902  Biso   1.000  C
  C1123    1.0000 0.70760  0.76690  0.04017  Biso   1.000  C
  H905     1.0000 0.69750  0.76530  0.02700  Biso   1.000  H
  C1124    1.0000 0.70780  0.79690  0.05060  Biso   1.000  C
  H906     1.0000 0.69780  0.81570  0.04450  Biso   1.000  H
  C1125    1.0000 0.72220  0.70770  0.03760  Biso   1.000  C
  Co39     1.0000 0.36138  0.74138  0.03306  Biso   1.000  Co
  Co40     1.0000 0.04084  0.96718  0.27840  Biso   1.000  Co
  S39      1.0000 0.40956  0.70181  0.06121  Biso   1.000  S
  S40      1.0000 0.07464  0.93713  0.31743  Biso   1.000  S
  O218     1.0000 0.38220  0.72340  0.06077  Biso   1.000  O
  O219     1.0000 0.42070  0.69220  0.08141  Biso   1.000  O
  O220     1.0000 0.40896  0.74960  0.02284  Biso   1.000  O
  O221     1.0000 0.36443  0.69283  0.02228  Biso   1.000  O
  O222     1.0000 0.07390  0.93840  0.29506  Biso   1.000  O
  O223     1.0000 0.09830  0.91530  0.32682  Biso   1.000  O
  O224     1.0000 0.05100  0.00620  0.29869  Biso   1.000  O
  O225     1.0000 0.35800  0.78730  0.04581  Biso   1.000  O
  O226     1.0000 0.38170  0.81840  0.02170  Biso   1.000  O
  O227     1.0000 0.07820  0.98160  0.25996  Biso   1.000  O
  O228     1.0000 0.07130  0.03370  0.25807  Biso   1.000  O
  O229     1.0000 0.26530  0.31450  0.04515  Biso   1.000  O
  O230     1.0000 0.29280  0.29210  0.02154  Biso   1.000  O
  C1126    1.0000 0.43970  0.74010  0.03080  Biso   1.000  C
  C1127    1.0000 0.44240  0.71920  0.04774  Biso   1.000  C
  C1128    1.0000 0.47330  0.71090  0.05542  Biso   1.000  C
  H907     1.0000 0.47510  0.69670  0.06700  Biso   1.000  H
  C1129    1.0000 0.50154  0.72360  0.04617  Biso   1.000  C
  C1130    1.0000 0.49880  0.74450  0.02925  Biso   1.000  C
  H908     1.0000 0.51810  0.75310  0.02290  Biso   1.000  H
  C1131    1.0000 0.46790  0.75270  0.02157  Biso   1.000  C
  C1132    1.0000 0.53510  0.71560  0.05458  Biso   1.000  C
  C1133    1.0000 0.53400  0.69530  0.07412  Biso   1.000  C
  H909     1.0000 0.55660  0.69100  0.07880  Biso   1.000  H
  H910     1.0000 0.52280  0.67440  0.07140  Biso   1.000  H
  H911     1.0000 0.52200  0.70750  0.08480  Biso   1.000  H
  C1134    1.0000 0.55560  0.69730  0.03860  Biso   1.000  C
  H912     1.0000 0.57740  0.69230  0.04430  Biso   1.000  H
  H913     1.0000 0.55810  0.71110  0.02630  Biso   1.000  H
  H914     1.0000 0.54450  0.67670  0.03480  Biso   1.000  H
  C1135    1.0000 0.55390  0.74750  0.05960  Biso   1.000  C
  H915     1.0000 0.57570  0.74190  0.06500  Biso   1.000  H
  H916     1.0000 0.54150  0.76020  0.06990  Biso   1.000  H
  H917     1.0000 0.55630  0.76060  0.04700  Biso   1.000  H
  C1136    1.0000 0.37680  0.66340  0.03160  Biso   1.000  C
  C1137    1.0000 0.39740  0.66527  0.04870  Biso   1.000  C
  C1138    1.0000 0.41380  0.63720  0.05559  Biso   1.000  C
  H918     1.0000 0.42790  0.63850  0.06730  Biso   1.000  H
  C1139    1.0000 0.40960  0.60740  0.04538  Biso   1.000  C
  C1140    1.0000 0.38900  0.60560  0.02827  Biso   1.000  C
  H919     1.0000 0.38610  0.58510  0.02130  Biso   1.000  H
  C1141    1.0000 0.37260  0.63360  0.02139  Biso   1.000  C
  C1142    1.0000 0.42960  0.57770  0.05131  Biso   1.000  C
  C1143    1.0000 0.44970  0.58300  0.07071  Biso   1.000  C
  H920     1.0000 0.46220  0.56290  0.07390  Biso   1.000  H
  H921     1.0000 0.43490  0.58810  0.08220  Biso   1.000  H
  H922     1.0000 0.46500  0.60140  0.06860  Biso   1.000  H
  C1144    1.0000 0.45400  0.56890  0.03402  Biso   1.000  C
  H923     1.0000 0.46690  0.54950  0.03810  Biso   1.000  H
  H924     1.0000 0.46890  0.58760  0.03160  Biso   1.000  H
  H925     1.0000 0.44180  0.56410  0.02130  Biso   1.000  H
  C1145    1.0000 0.40770  0.54760  0.05420  Biso   1.000  C
  H926     1.0000 0.42130  0.52860  0.05800  Biso   1.000  H
  H927     1.0000 0.39610  0.54290  0.04130  Biso   1.000  H
  H928     1.0000 0.39160  0.55200  0.06510  Biso   1.000  H
  C1146    1.0000 0.06860  0.00560  0.31795  Biso   1.000  C
  C1147    1.0000 0.08090  0.97680  0.32667  Biso   1.000  C
  C1148    1.0000 0.10050  0.97830  0.34423  Biso   1.000  C
  H929     1.0000 0.10890  0.95860  0.35020  Biso   1.000  H
  C1149    1.0000 0.10780  0.00870  0.35307  Biso   1.000  C
  C1150    1.0000 0.09560  0.03750  0.34435  Biso   1.000  C
  H930     1.0000 0.10060  0.05830  0.35040  Biso   1.000  H
  C1151    1.0000 0.07590  0.03600  0.32679  Biso   1.000  C
  C1152    1.0000 0.12770  0.01000  0.37277  Biso   1.000  C
  C1153    1.0000 0.16080  0.99330  0.37030  Biso   1.000  C
  H931     1.0000 0.17300  0.99460  0.38340  Biso   1.000  H
  H932     1.0000 0.17350  0.00440  0.35950  Biso   1.000  H
  H933     1.0000 0.15750  0.97010  0.36660  Biso   1.000  H
  C1154    1.0000 0.10980  0.99190  0.39007  Biso   1.000  C
  H934     1.0000 0.12310  0.99300  0.40270  Biso   1.000  H
  H935     1.0000 0.10650  0.96880  0.38620  Biso   1.000  H
  H936     1.0000 0.08840  0.00240  0.39250  Biso   1.000  H
  C1155    1.0000 0.13380  0.04490  0.38000  Biso   1.000  C
  H937     1.0000 0.14670  0.04460  0.39280  Biso   1.000  H
  H938     1.0000 0.11260  0.05590  0.38250  Biso   1.000  H
  H939     1.0000 0.14600  0.05700  0.36930  Biso   1.000  H
  C1156    1.0000 0.36640  0.81460  0.03814  Biso   1.000  C
  C1157    1.0000 0.35830  0.84460  0.05001  Biso   1.000  C
  C1158    1.0000 0.34250  0.84216  0.06899  Biso   1.000  C
  H940     1.0000 0.33780  0.82110  0.07470  Biso   1.000  H
  C1159    1.0000 0.33350  0.87060  0.07961  Biso   1.000  C
  H941     1.0000 0.32270  0.86890  0.09260  Biso   1.000  H
  C1160    1.0000 0.34030  0.90141  0.07126  Biso   1.000  C
  C1161    1.0000 0.35610  0.90386  0.05228  Biso   1.000  C
  H942     1.0000 0.36070  0.92490  0.04660  Biso   1.000  H
  C1162    1.0000 0.36510  0.87550  0.04166  Biso   1.000  C
  H943     1.0000 0.37590  0.87710  0.02870  Biso   1.000  H
  C1163    1.0000 0.32800  0.93210  0.08203  Biso   1.000  C
  C1164    1.0000 0.32630  0.93310  0.10344  Biso   1.000  C
  H944     1.0000 0.33350  0.91470  0.11130  Biso   1.000  H
  C1165    1.0000 0.31400  0.96100  0.11328  Biso   1.000  C
  H945     1.0000 0.31280  0.96160  0.12790  Biso   1.000  H
  C1166    1.0000 0.30340  0.98780  0.10171  Biso   1.000  C
  C1167    1.0000 0.30520  0.98680  0.08029  Biso   1.000  C
  H946     1.0000 0.29800  0.00520  0.07240  Biso   1.000  H
  C1168    1.0000 0.31750  0.95900  0.07045  Biso   1.000  C
  H947     1.0000 0.31870  0.95830  0.05580  Biso   1.000  H
  C1169    1.0000 0.28770  0.01692  0.11242  Biso   1.000  C
  C1170    1.0000 0.26810  0.01225  0.12981  Biso   1.000  C
  H948     1.0000 0.26680  0.99110  0.13600  Biso   1.000  H
  C1171    1.0000 0.25050  0.03855  0.13808  Biso   1.000  C
  C1172    1.0000 0.25250  0.06953  0.12896  Biso   1.000  C
  H949     1.0000 0.24050  0.08750  0.13460  Biso   1.000  H
  C1173    1.0000 0.27200  0.07421  0.11158  Biso   1.000  C
  C1174    1.0000 0.28960  0.04791  0.10330  Biso   1.000  C
  H950     1.0000 0.30290  0.05110  0.09140  Biso   1.000  H
  C1175    1.0000 0.22890  0.03310  0.15655  Biso   1.000  C
  C1176    1.0000 0.21110  0.00390  0.15856  Biso   1.000  C
  H951     1.0000 0.21370  0.98680  0.14870  Biso   1.000  H
  C1177    1.0000 0.18960  0.99980  0.17506  Biso   1.000  C
  H952     1.0000 0.17750  0.97990  0.17640  Biso   1.000  H
  C1178    1.0000 0.18590  0.02480  0.18954  Biso   1.000  C
  C1179    1.0000 0.20360  0.05390  0.18753  Biso   1.000  C
  H953     1.0000 0.20110  0.07100  0.19740  Biso   1.000  H
  C1180    1.0000 0.22520  0.05810  0.17103  Biso   1.000  C
  H954     1.0000 0.23730  0.07800  0.16970  Biso   1.000  H
  C1181    1.0000 0.16160  0.02100  0.20711  Biso   1.000  C
  C1182    1.0000 0.15420  0.98980  0.21476  Biso   1.000  C
  H955     1.0000 0.16550  0.97100  0.20960  Biso   1.000  H
  C1183    1.0000 0.13030  0.98610  0.22996  Biso   1.000  C
  H956     1.0000 0.12530  0.96480  0.23520  Biso   1.000  H
  C1184    1.0000 0.11380  0.01360  0.23752  Biso   1.000  C
  C1185    1.0000 0.12120  0.04480  0.22988  Biso   1.000  C
  H957     1.0000 0.10990  0.06360  0.23500  Biso   1.000  H
  C1186    1.0000 0.14510  0.04850  0.21467  Biso   1.000  C
  H958     1.0000 0.15010  0.06980  0.20940  Biso   1.000  H
  C1187    1.0000 0.08650  0.00930  0.25267  Biso   1.000  C
  C1188    1.0000 0.27220  0.10692  0.10047  Biso   1.000  C
  C1189    1.0000 0.27070  0.13590  0.11188  Biso   1.000  C
  H959     1.0000 0.26850  0.13500  0.12650  Biso   1.000  H
  C1190    1.0000 0.27230  0.16627  0.10196  Biso   1.000  C
  H960     1.0000 0.27120  0.18610  0.10980  Biso   1.000  H
  C1191    1.0000 0.27540  0.16763  0.08061  Biso   1.000  C
  C1192    1.0000 0.27690  0.13860  0.06920  Biso   1.000  C
  H961     1.0000 0.27910  0.13960  0.05460  Biso   1.000  H
  C1193    1.0000 0.27540  0.10828  0.07912  Biso   1.000  C
  H962     1.0000 0.27640  0.08850  0.07130  Biso   1.000  H
  C1194    1.0000 0.27750  0.20079  0.06990  Biso   1.000  C
  C1195    1.0000 0.26280  0.22840  0.07876  Biso   1.000  C
  H963     1.0000 0.25270  0.22680  0.09200  Biso   1.000  H
  C1196    1.0000 0.26300  0.25840  0.06832  Biso   1.000  C
  H964     1.0000 0.25300  0.27720  0.07440  Biso   1.000  H
  C1197    1.0000 0.27780  0.26070  0.04902  Biso   1.000  C
  C1198    1.0000 0.29240  0.23310  0.04017  Biso   1.000  C
  H965     1.0000 0.30250  0.23470  0.02700  Biso   1.000  H
  C1199    1.0000 0.29220  0.20310  0.05060  Biso   1.000  C
  H966     1.0000 0.30220  0.18430  0.04450  Biso   1.000  H
  C1200    1.0000 0.27780  0.29230  0.03760  Biso   1.000  C
  Co41     1.0000 0.78223  0.60630  0.00000  Biso   1.000  Co
  Co42     1.0000 0.70087  0.67090  0.00000  Biso   1.000  Co
  S41      1.0000 0.77818  0.53030  0.00000  Biso   1.000  S
  S42      1.0000 0.62620  0.65103  0.00000  Biso   1.000  S
  O231     1.0000 0.80140  0.55870  0.00000  Biso   1.000  O
  O232     1.0000 0.79580  0.49770  0.00000  Biso   1.000  O
  O233     1.0000 0.64900  0.67790  0.00000  Biso   1.000  O
  O234     1.0000 0.59200  0.65860  0.00000  Biso   1.000  O
  O235     1.0000 0.74780  0.64960  0.00000  Biso   1.000  O
  H967     1.0000 0.75950  0.66680  0.00000  Biso   1.000  H
  Co43     1.0000 0.21777  0.39370  0.00000  Biso   1.000  Co
  Co44     1.0000 0.29913  0.32910  0.00000  Biso   1.000  Co
  S43      1.0000 0.22182  0.46970  0.00000  Biso   1.000  S
  S44      1.0000 0.37380  0.34897  0.00000  Biso   1.000  S
  O236     1.0000 0.19860  0.44130  0.00000  Biso   1.000  O
  O237     1.0000 0.20420  0.50230  0.00000  Biso   1.000  O
  O238     1.0000 0.35100  0.32210  0.00000  Biso   1.000  O
  O239     1.0000 0.40800  0.34140  0.00000  Biso   1.000  O
  O240     1.0000 0.25220  0.35040  0.00000  Biso   1.000  O
  H968     1.0000 0.24050  0.33320  0.00000  Biso   1.000  H
  Co45     1.0000 0.39370  0.78223  0.00000  Biso   1.000  Co
  Co46     1.0000 0.32910  0.70087  0.00000  Biso   1.000  Co
  S45      1.0000 0.46970  0.77818  0.00000  Biso   1.000  S
  S46      1.0000 0.34897  0.62620  0.00000  Biso   1.000  S
  O241     1.0000 0.44130  0.80140  0.00000  Biso   1.000  O
  O242     1.0000 0.50230  0.79580  0.00000  Biso   1.000  O
  O243     1.0000 0.32210  0.64900  0.00000  Biso   1.000  O
  O244     1.0000 0.34140  0.59200  0.00000  Biso   1.000  O
  O245     1.0000 0.35040  0.74780  0.00000  Biso   1.000  O
  H969     1.0000 0.33320  0.75950  0.00000  Biso   1.000  H
  Co47     1.0000 0.60630  0.21777  0.00000  Biso   1.000  Co
  Co48     1.0000 0.67090  0.29913  0.00000  Biso   1.000  Co
  S47      1.0000 0.53030  0.22182  0.00000  Biso   1.000  S
  S48      1.0000 0.65103  0.37380  0.00000  Biso   1.000  S
  O246     1.0000 0.55870  0.19860  0.00000  Biso   1.000  O
  O247     1.0000 0.49770  0.20420  0.00000  Biso   1.000  O
  O248     1.0000 0.67790  0.35100  0.00000  Biso   1.000  O
  O249     1.0000 0.65860  0.40800  0.00000  Biso   1.000  O
  O250     1.0000 0.64960  0.25220  0.00000  Biso   1.000  O
  H970     1.0000 0.66680  0.24050  0.00000  Biso   1.000  H
  O251     1.0000 0.00000  0.00000  0.72910  Biso   1.000  O
  H971     1.0000 0.00000  0.00000  0.74210  Biso   1.000  H
  O252     1.0000 0.00000  0.00000  0.27090  Biso   1.000  O
  H972     1.0000 0.00000  0.00000  0.25790  Biso   1.000  H
