data_image0
_cell_length_a       47.6239
_cell_length_b       16.6379
_cell_length_c       36.1489
_cell_angle_alpha    90
_cell_angle_beta     127.438
_cell_angle_gamma    90

_symmetry_space_group_name_H-M    "P 1"
_symmetry_int_tables_number       1

loop_
  _symmetry_equiv_pos_as_xyz
  'x, y, z'

loop_
  _atom_site_label
  _atom_site_occupancy
  _atom_site_fract_x
  _atom_site_fract_y
  _atom_site_fract_z
  _atom_site_thermal_displace_type
  _atom_site_B_iso_or_equiv
  _atom_site_type_symbol
  Ag1      1.0000 0.10250  0.25128  0.22916  Biso   1.000  Ag
  Ag2      1.0000 0.00853  0.37363  0.21414  Biso   1.000  Ag
  Ag3      1.0000 0.98223  0.22626  0.15958  Biso   1.000  Ag
  Ag4      1.0000 0.01763  0.09134  0.22316  Biso   1.000  Ag
  Ag5      1.0000 0.06414  0.15408  0.31606  Biso   1.000  Ag
  Ag6      1.0000 0.05998  0.32992  0.31309  Biso   1.000  Ag
  Au1      1.0000 0.08121  0.38767  0.25879  Biso   1.000  Au
  Au2      1.0000 0.03311  0.32544  0.16367  Biso   1.000  Au
  Au3      1.0000 0.03887  0.15191  0.16927  Biso   1.000  Au
  Au4      1.0000 0.09146  0.10806  0.26600  Biso   1.000  Au
  Au5      1.0000 0.11491  0.25157  0.32085  Biso   1.000  Au
  Au6      1.0000 0.05158  0.24092  0.23947  Biso   1.000  Au
  C1       1.0000 0.07520  0.59480  0.25699  Biso   1.000  C
  C2       1.0000 0.03939  0.57670  0.23070  Biso   1.000  C
  H1       1.0000 0.03170  0.52430  0.22090  Biso   1.000  H
  C3       1.0000 0.01511  0.63700  0.21920  Biso   1.000  C
  H2       1.0000 0.99120  0.62490  0.20170  Biso   1.000  H
  C4       1.0000 0.02660  0.71540  0.23400  Biso   1.000  C
  H3       1.0000 0.01040  0.75580  0.22630  Biso   1.000  H
  C5       1.0000 0.06240  0.73360  0.26020  Biso   1.000  C
  H4       1.0000 0.07020  0.78600  0.27010  Biso   1.000  H
  C6       1.0000 0.08673  0.67330  0.27170  Biso   1.000  C
  H5       1.0000 0.11070  0.68540  0.28930  Biso   1.000  H
  C7       1.0000 0.12131  0.53150  0.24010  Biso   1.000  C
  C8       1.0000 0.12673  0.60860  0.23080  Biso   1.000  C
  H6       1.0000 0.12170  0.65300  0.24150  Biso   1.000  H
  C9       1.0000 0.13960  0.61930  0.20540  Biso   1.000  C
  H7       1.0000 0.14320  0.67090  0.19920  Biso   1.000  H
  C10      1.0000 0.14700  0.55300  0.18940  Biso   1.000  C
  H8       1.0000 0.15570  0.56020  0.17240  Biso   1.000  H
  C11      1.0000 0.14160  0.47580  0.19870  Biso   1.000  C
  H9       1.0000 0.14660  0.43140  0.18790  Biso   1.000  H
  C12      1.0000 0.12880  0.46510  0.22400  Biso   1.000  C
  H10      1.0000 0.12510  0.41350  0.23030  Biso   1.000  H
  C13      1.0000 0.14024  0.53210  0.33150  Biso   1.000  C
  C14      1.0000 0.13160  0.55560  0.36037  Biso   1.000  C
  H11      1.0000 0.10800  0.55710  0.34890  Biso   1.000  H
  C15      1.0000 0.15810  0.57690  0.40636  Biso   1.000  C
  H12      1.0000 0.15240  0.59260  0.42570  Biso   1.000  H
  C16      1.0000 0.19330  0.57460  0.42349  Biso   1.000  C
  H13      1.0000 0.21110  0.58890  0.45430  Biso   1.000  H
  C17      1.0000 0.20199  0.55110  0.39460  Biso   1.000  C
  H14      1.0000 0.22550  0.54960  0.40610  Biso   1.000  H
  C18      1.0000 0.17544  0.52990  0.34870  Biso   1.000  C
  H15      1.0000 0.18120  0.51410  0.32940  Biso   1.000  H
  C19      1.0000 0.03000  0.49860  0.10800  Biso   1.000  C
  C20      1.0000 0.05020  0.53240  0.09620  Biso   1.000  C
  H16      1.0000 0.06010  0.49970  0.08600  Biso   1.000  H
  C21      1.0000 0.05570  0.61500  0.09950  Biso   1.000  C
  H17      1.0000 0.06920  0.63760  0.09160  Biso   1.000  H
  C22      1.0000 0.04090  0.66380  0.11480  Biso   1.000  C
  H18      1.0000 0.04450  0.71910  0.11700  Biso   1.000  H
  C23      1.0000 0.02060  0.63000  0.12660  Biso   1.000  C
  H19      1.0000 0.01070  0.66270  0.13680  Biso   1.000  H
  C24      1.0000 0.01520  0.54740  0.12330  Biso   1.000  C
  H20      1.0000 0.00160  0.52480  0.13120  Biso   1.000  H
  C25      1.0000 0.97250  0.40350  0.05320  Biso   1.000  C
  C26      1.0000 0.96010  0.45570  0.01620  Biso   1.000  C
  H21      1.0000 0.97590  0.48540  0.01480  Biso   1.000  H
  C27      1.0000 0.92390  0.46350  0.98130  Biso   1.000  C
  H22      1.0000 0.91560  0.49840  0.95650  Biso   1.000  H
  C28      1.0000 0.90020  0.41910  0.98340  Biso   1.000  C
  H23      1.0000 0.87600  0.42430  0.96010  Biso   1.000  H
  C29      1.0000 0.91270  0.36680  0.02050  Biso   1.000  C
  H24      1.0000 0.89680  0.33710  0.02190  Biso   1.000  H
  C30      1.0000 0.94880  0.35910  0.05530  Biso   1.000  C
  H25      1.0000 0.95720  0.32410  0.08010  Biso   1.000  H
  C31      1.0000 0.03750  0.35570  0.07510  Biso   1.000  C
  C32      1.0000 0.02210  0.35710  0.02790  Biso   1.000  C
  H26      1.0000 0.99940  0.37740  0.00660  Biso   1.000  H
  C33      1.0000 0.04070  0.32810  0.01240  Biso   1.000  C
  H27      1.0000 0.03040  0.32910  0.98080  Biso   1.000  H
  C34      1.0000 0.07470  0.29780  0.04420  Biso   1.000  C
  H28      1.0000 0.08710  0.27840  0.03380  Biso   1.000  H
  C35      1.0000 0.09010  0.29640  0.09140  Biso   1.000  C
  H29      1.0000 0.11280  0.27610  0.11260  Biso   1.000  H
  C36      1.0000 0.07150  0.32530  0.10690  Biso   1.000  C
  H30      1.0000 0.08180  0.32440  0.13850  Biso   1.000  H
  C37      1.0000 0.05990  0.06420  0.10510  Biso   1.000  C
  C38      1.0000 0.05740  0.01320  0.07280  Biso   1.000  C
  H31      1.0000 0.03670  0.98450  0.05200  Biso   1.000  H
  C39      1.0000 0.08590  0.00500  0.07170  Biso   1.000  C
  H32      1.0000 0.08430  0.97090  0.05000  Biso   1.000  H
  C40      1.0000 0.11690  0.04790  0.10280  Biso   1.000  C
  H33      1.0000 0.13600  0.04240  0.10200  Biso   1.000  H
  C41      1.0000 0.11940  0.09890  0.13510  Biso   1.000  C
  H34      1.0000 0.14010  0.12750  0.15600  Biso   1.000  H
  C42      1.0000 0.09090  0.10700  0.13630  Biso   1.000  C
  H35      1.0000 0.09250  0.14110  0.15790  Biso   1.000  H
  C43      1.0000 0.99357  0.13120  0.05290  Biso   1.000  C
  C44      1.0000 0.99850  0.15550  0.02040  Biso   1.000  C
  H36      1.0000 0.02000  0.14650  0.02590  Biso   1.000  H
  C45      1.0000 0.97120  0.19330  0.97950  Biso   1.000  C
  H37      1.0000 0.97440  0.20960  0.95780  Biso   1.000  H
  C46      1.0000 0.93900  0.20690  0.97120  Biso   1.000  C
  H38      1.0000 0.92070  0.23220  0.94390  Biso   1.000  H
  C47      1.0000 0.93410  0.18260  0.00370  Biso   1.000  C
  H39      1.0000 0.91250  0.19160  0.99820  Biso   1.000  H
  C48      1.0000 0.96140  0.14480  0.04460  Biso   1.000  C
  H40      1.0000 0.95810  0.12850  0.06630  Biso   1.000  H
  C49      1.0000 0.00459  0.98400  0.09970  Biso   1.000  C
  C50      1.0000 0.98450  0.94720  0.05620  Biso   1.000  C
  H41      1.0000 0.98210  0.97150  0.03130  Biso   1.000  H
  C51      1.0000 0.96790  0.87420  0.05010  Biso   1.000  C
  H42      1.0000 0.95450  0.84960  0.02100  Biso   1.000  H
  C52      1.0000 0.97150  0.83800  0.08740  Biso   1.000  C
  H43      1.0000 0.96050  0.78920  0.08320  Biso   1.000  H
  C53      1.0000 0.99160  0.87480  0.13080  Biso   1.000  C
  H44      1.0000 0.99400  0.85060  0.15580  Biso   1.000  H
  C54      1.0000 0.00820  0.94780  0.13700  Biso   1.000  C
  H45      1.0000 0.02160  0.97250  0.16610  Biso   1.000  H
  C55      1.0000 0.12930  0.92830  0.32610  Biso   1.000  C
  C56      1.0000 0.14790  0.85660  0.33770  Biso   1.000  C
  H46      1.0000 0.15990  0.84480  0.32560  Biso   1.000  H
  C57      1.0000 0.14850  0.80240  0.36750  Biso   1.000  C
  H47      1.0000 0.16090  0.75450  0.37530  Biso   1.000  H
  C58      1.0000 0.13050  0.82010  0.38560  Biso   1.000  C
  H48      1.0000 0.13090  0.78380  0.40550  Biso   1.000  H
  C59      1.0000 0.11190  0.89180  0.37400  Biso   1.000  C
  H49      1.0000 0.09980  0.90360  0.38610  Biso   1.000  H
  C60      1.0000 0.11130  0.94590  0.34420  Biso   1.000  C
  H50      1.0000 0.09890  0.99390  0.33640  Biso   1.000  H
  C61      1.0000 0.17331  0.03690  0.31996  Biso   1.000  C
  C62      1.0000 0.20264  0.99400  0.35558  Biso   1.000  C
  H51      1.0000 0.19970  0.94890  0.36810  Biso   1.000  H
  C63      1.0000 0.23643  0.01840  0.37250  Biso   1.000  C
  H52      1.0000 0.25610  0.98970  0.39630  Biso   1.000  H
  C64      1.0000 0.24089  0.08570  0.35380  Biso   1.000  C
  H53      1.0000 0.26350  0.10200  0.36510  Biso   1.000  H
  C65      1.0000 0.21156  0.12860  0.31816  Biso   1.000  C
  H54      1.0000 0.21450  0.17370  0.30560  Biso   1.000  H
  C66      1.0000 0.17777  0.10420  0.30125  Biso   1.000  C
  H55      1.0000 0.15810  0.13290  0.27740  Biso   1.000  H
  C67      1.0000 0.11971  0.94360  0.24079  Biso   1.000  C
  C68      1.0000 0.09118  0.89130  0.22080  Biso   1.000  C
  H56      1.0000 0.07810  0.88900  0.23210  Biso   1.000  H
  C69      1.0000 0.08220  0.84230  0.18390  Biso   1.000  C
  H57      1.0000 0.06310  0.80730  0.17050  Biso   1.000  H
  C70      1.0000 0.10170  0.84560  0.16690  Biso   1.000  C
  H58      1.0000 0.09560  0.81290  0.14220  Biso   1.000  H
  C71      1.0000 0.13020  0.89790  0.18693  Biso   1.000  C
  H59      1.0000 0.14320  0.90020  0.17560  Biso   1.000  H
  C72      1.0000 0.13920  0.94690  0.22385  Biso   1.000  C
  H60      1.0000 0.15830  0.98190  0.23720  Biso   1.000  H
  C73      1.0000 0.18382  0.16260  0.41640  Biso   1.000  C
  C74      1.0000 0.21786  0.13810  0.43451  Biso   1.000  C
  H61      1.0000 0.23190  0.17010  0.43050  Biso   1.000  H
  C75      1.0000 0.23099  0.06590  0.45860  Biso   1.000  C
  H62      1.0000 0.25380  0.04950  0.47070  Biso   1.000  H
  C76      1.0000 0.21008  0.01810  0.46458  Biso   1.000  C
  H63      1.0000 0.21890  0.96980  0.48070  Biso   1.000  H
  C77      1.0000 0.17604  0.04260  0.44648  Biso   1.000  C
  H64      1.0000 0.16200  0.01060  0.45050  Biso   1.000  H
  C78      1.0000 0.16291  0.11480  0.42239  Biso   1.000  C
  H65      1.0000 0.14010  0.13120  0.41030  Biso   1.000  H
  C79      1.0000 0.16903  0.31490  0.43488  Biso   1.000  C
  C80      1.0000 0.19117  0.29540  0.48196  Biso   1.000  C
  H66      1.0000 0.20660  0.25220  0.49230  Biso   1.000  H
  C81      1.0000 0.19021  0.34050  0.51350  Biso   1.000  C
  H67      1.0000 0.20500  0.32750  0.54500  Biso   1.000  H
  C82      1.0000 0.16711  0.40520  0.49800  Biso   1.000  C
  H68      1.0000 0.16650  0.43540  0.51920  Biso   1.000  H
  C83      1.0000 0.14496  0.42470  0.45090  Biso   1.000  C
  H69      1.0000 0.12950  0.46800  0.44060  Biso   1.000  H
  C84      1.0000 0.14593  0.37960  0.41940  Biso   1.000  C
  H70      1.0000 0.13110  0.39270  0.38790  Biso   1.000  H
  C85      1.0000 0.19952  0.30620  0.38892  Biso   1.000  C
  C86      1.0000 0.23056  0.33720  0.42860  Biso   1.000  C
  H71      1.0000 0.23450  0.33490  0.45710  Biso   1.000  H
  C87      1.0000 0.25568  0.37190  0.42560  Biso   1.000  C
  H72      1.0000 0.27650  0.39270  0.45220  Biso   1.000  H
  C88      1.0000 0.24977  0.37550  0.38300  Biso   1.000  C
  H73      1.0000 0.26660  0.39870  0.38100  Biso   1.000  H
  C89      1.0000 0.21873  0.34440  0.34330  Biso   1.000  C
  H74      1.0000 0.21480  0.34680  0.31480  Biso   1.000  H
  C90      1.0000 0.19360  0.30970  0.34627  Biso   1.000  C
  H75      1.0000 0.17280  0.28890  0.31970  Biso   1.000  H
  Cl1      1.0000 0.14701  0.26050  0.22059  Biso   1.000  Cl
  Cl2      1.0000 0.95720  0.45940  0.17028  Biso   1.000  Cl
  Cl3      1.0000 0.91994  0.23740  0.10592  Biso   1.000  Cl
  Cl4      1.0000 0.04589  0.04000  0.34180  Biso   1.000  Cl
  P1       1.0000 0.10430  0.51410  0.27136  Biso   1.000  P
  P2       1.0000 0.01797  0.39640  0.09922  Biso   1.000  P
  P3       1.0000 0.02498  0.07970  0.10646  Biso   1.000  P
  P4       1.0000 0.12908  0.00330  0.28930  Biso   1.000  P
  P5       1.0000 0.16790  0.25890  0.39164  Biso   1.000  P
  Ag7      1.0000 0.89750  0.25128  0.27084  Biso   1.000  Ag
  Ag8      1.0000 0.99147  0.37363  0.28586  Biso   1.000  Ag
  Ag9      1.0000 0.01777  0.22626  0.34042  Biso   1.000  Ag
  Ag10     1.0000 0.98237  0.09134  0.27684  Biso   1.000  Ag
  Ag11     1.0000 0.93586  0.15408  0.18394  Biso   1.000  Ag
  Ag12     1.0000 0.94002  0.32992  0.18691  Biso   1.000  Ag
  Au7      1.0000 0.91879  0.38767  0.24121  Biso   1.000  Au
  Au8      1.0000 0.96689  0.32544  0.33633  Biso   1.000  Au
  Au9      1.0000 0.96113  0.15191  0.33073  Biso   1.000  Au
  Au10     1.0000 0.90854  0.10806  0.23400  Biso   1.000  Au
  Au11     1.0000 0.88509  0.25157  0.17915  Biso   1.000  Au
  Au12     1.0000 0.94842  0.24092  0.26053  Biso   1.000  Au
  C91      1.0000 0.92480  0.59480  0.24301  Biso   1.000  C
  C92      1.0000 0.96061  0.57670  0.26930  Biso   1.000  C
  H76      1.0000 0.96830  0.52430  0.27910  Biso   1.000  H
  C93      1.0000 0.98489  0.63700  0.28080  Biso   1.000  C
  H77      1.0000 0.00880  0.62490  0.29830  Biso   1.000  H
  C94      1.0000 0.97340  0.71540  0.26600  Biso   1.000  C
  H78      1.0000 0.98960  0.75580  0.27370  Biso   1.000  H
  C95      1.0000 0.93760  0.73360  0.23980  Biso   1.000  C
  H79      1.0000 0.92980  0.78600  0.22990  Biso   1.000  H
  C96      1.0000 0.91327  0.67330  0.22830  Biso   1.000  C
  H80      1.0000 0.88930  0.68540  0.21070  Biso   1.000  H
  C97      1.0000 0.87869  0.53150  0.25990  Biso   1.000  C
  C98      1.0000 0.87327  0.60860  0.26920  Biso   1.000  C
  H81      1.0000 0.87830  0.65300  0.25850  Biso   1.000  H
  C99      1.0000 0.86040  0.61930  0.29460  Biso   1.000  C
  H82      1.0000 0.85680  0.67090  0.30080  Biso   1.000  H
  C100     1.0000 0.85300  0.55300  0.31060  Biso   1.000  C
  H83      1.0000 0.84430  0.56020  0.32760  Biso   1.000  H
  C101     1.0000 0.85840  0.47580  0.30130  Biso   1.000  C
  H84      1.0000 0.85340  0.43140  0.31210  Biso   1.000  H
  C102     1.0000 0.87120  0.46510  0.27600  Biso   1.000  C
  H85      1.0000 0.87490  0.41350  0.26970  Biso   1.000  H
  C103     1.0000 0.85976  0.53210  0.16850  Biso   1.000  C
  C104     1.0000 0.86840  0.55560  0.13963  Biso   1.000  C
  H86      1.0000 0.89200  0.55710  0.15110  Biso   1.000  H
  C105     1.0000 0.84190  0.57690  0.09364  Biso   1.000  C
  H87      1.0000 0.84760  0.59260  0.07430  Biso   1.000  H
  C106     1.0000 0.80670  0.57460  0.07651  Biso   1.000  C
  H88      1.0000 0.78890  0.58890  0.04570  Biso   1.000  H
  C107     1.0000 0.79801  0.55110  0.10540  Biso   1.000  C
  H89      1.0000 0.77450  0.54960  0.09390  Biso   1.000  H
  C108     1.0000 0.82456  0.52990  0.15130  Biso   1.000  C
  H90      1.0000 0.81880  0.51410  0.17060  Biso   1.000  H
  C109     1.0000 0.97000  0.49860  0.39200  Biso   1.000  C
  C110     1.0000 0.94980  0.53240  0.40380  Biso   1.000  C
  H91      1.0000 0.93990  0.49970  0.41400  Biso   1.000  H
  C111     1.0000 0.94430  0.61500  0.40050  Biso   1.000  C
  H92      1.0000 0.93080  0.63760  0.40840  Biso   1.000  H
  C112     1.0000 0.95910  0.66380  0.38520  Biso   1.000  C
  H93      1.0000 0.95550  0.71910  0.38300  Biso   1.000  H
  C113     1.0000 0.97940  0.63000  0.37340  Biso   1.000  C
  H94      1.0000 0.98930  0.66270  0.36320  Biso   1.000  H
  C114     1.0000 0.98480  0.54740  0.37670  Biso   1.000  C
  H95      1.0000 0.99840  0.52480  0.36880  Biso   1.000  H
  C115     1.0000 0.02750  0.40350  0.44680  Biso   1.000  C
  C116     1.0000 0.03990  0.45570  0.48380  Biso   1.000  C
  H96      1.0000 0.02410  0.48540  0.48520  Biso   1.000  H
  C117     1.0000 0.07610  0.46350  0.51870  Biso   1.000  C
  H97      1.0000 0.08440  0.49840  0.54350  Biso   1.000  H
  C118     1.0000 0.09980  0.41910  0.51660  Biso   1.000  C
  H98      1.0000 0.12400  0.42430  0.53990  Biso   1.000  H
  C119     1.0000 0.08730  0.36680  0.47950  Biso   1.000  C
  H99      1.0000 0.10320  0.33710  0.47810  Biso   1.000  H
  C120     1.0000 0.05120  0.35910  0.44470  Biso   1.000  C
  H100     1.0000 0.04280  0.32410  0.41990  Biso   1.000  H
  C121     1.0000 0.96250  0.35570  0.42490  Biso   1.000  C
  C122     1.0000 0.97790  0.35710  0.47210  Biso   1.000  C
  H101     1.0000 0.00060  0.37740  0.49340  Biso   1.000  H
  C123     1.0000 0.95930  0.32810  0.48760  Biso   1.000  C
  H102     1.0000 0.96960  0.32910  0.51920  Biso   1.000  H
  C124     1.0000 0.92530  0.29780  0.45580  Biso   1.000  C
  H103     1.0000 0.91290  0.27840  0.46620  Biso   1.000  H
  C125     1.0000 0.90990  0.29640  0.40860  Biso   1.000  C
  H104     1.0000 0.88720  0.27610  0.38740  Biso   1.000  H
  C126     1.0000 0.92850  0.32530  0.39310  Biso   1.000  C
  H105     1.0000 0.91820  0.32440  0.36150  Biso   1.000  H
  C127     1.0000 0.94010  0.06420  0.39490  Biso   1.000  C
  C128     1.0000 0.94260  0.01320  0.42720  Biso   1.000  C
  H106     1.0000 0.96330  0.98450  0.44800  Biso   1.000  H
  C129     1.0000 0.91410  0.00500  0.42830  Biso   1.000  C
  H107     1.0000 0.91570  0.97090  0.45000  Biso   1.000  H
  C130     1.0000 0.88310  0.04790  0.39720  Biso   1.000  C
  H108     1.0000 0.86400  0.04240  0.39800  Biso   1.000  H
  C131     1.0000 0.88060  0.09890  0.36490  Biso   1.000  C
  H109     1.0000 0.85990  0.12750  0.34400  Biso   1.000  H
  C132     1.0000 0.90910  0.10700  0.36370  Biso   1.000  C
  H110     1.0000 0.90750  0.14110  0.34210  Biso   1.000  H
  C133     1.0000 0.00643  0.13120  0.44710  Biso   1.000  C
  C134     1.0000 0.00150  0.15550  0.47960  Biso   1.000  C
  H111     1.0000 0.98000  0.14650  0.47410  Biso   1.000  H
  C135     1.0000 0.02880  0.19330  0.52050  Biso   1.000  C
  H112     1.0000 0.02560  0.20960  0.54220  Biso   1.000  H
  C136     1.0000 0.06100  0.20690  0.52880  Biso   1.000  C
  H113     1.0000 0.07930  0.23220  0.55610  Biso   1.000  H
  C137     1.0000 0.06590  0.18260  0.49630  Biso   1.000  C
  H114     1.0000 0.08750  0.19160  0.50180  Biso   1.000  H
  C138     1.0000 0.03860  0.14480  0.45540  Biso   1.000  C
  H115     1.0000 0.04190  0.12850  0.43370  Biso   1.000  H
  C139     1.0000 0.99541  0.98400  0.40030  Biso   1.000  C
  C140     1.0000 0.01550  0.94720  0.44380  Biso   1.000  C
  H116     1.0000 0.01790  0.97150  0.46870  Biso   1.000  H
  C141     1.0000 0.03210  0.87420  0.44990  Biso   1.000  C
  H117     1.0000 0.04550  0.84960  0.47900  Biso   1.000  H
  C142     1.0000 0.02850  0.83800  0.41260  Biso   1.000  C
  H118     1.0000 0.03950  0.78920  0.41680  Biso   1.000  H
  C143     1.0000 0.00840  0.87480  0.36920  Biso   1.000  C
  H119     1.0000 0.00600  0.85060  0.34420  Biso   1.000  H
  C144     1.0000 0.99180  0.94780  0.36300  Biso   1.000  C
  H120     1.0000 0.97840  0.97250  0.33390  Biso   1.000  H
  C145     1.0000 0.87070  0.92830  0.17390  Biso   1.000  C
  C146     1.0000 0.85210  0.85660  0.16230  Biso   1.000  C
  H121     1.0000 0.84010  0.84480  0.17440  Biso   1.000  H
  C147     1.0000 0.85150  0.80240  0.13250  Biso   1.000  C
  H122     1.0000 0.83910  0.75450  0.12470  Biso   1.000  H
  C148     1.0000 0.86950  0.82010  0.11440  Biso   1.000  C
  H123     1.0000 0.86910  0.78380  0.09450  Biso   1.000  H
  C149     1.0000 0.88810  0.89180  0.12600  Biso   1.000  C
  H124     1.0000 0.90020  0.90360  0.11390  Biso   1.000  H
  C150     1.0000 0.88870  0.94590  0.15580  Biso   1.000  C
  H125     1.0000 0.90110  0.99390  0.16360  Biso   1.000  H
  C151     1.0000 0.82669  0.03690  0.18004  Biso   1.000  C
  C152     1.0000 0.79736  0.99400  0.14442  Biso   1.000  C
  H126     1.0000 0.80030  0.94890  0.13190  Biso   1.000  H
  C153     1.0000 0.76357  0.01840  0.12750  Biso   1.000  C
  H127     1.0000 0.74390  0.98970  0.10370  Biso   1.000  H
  C154     1.0000 0.75911  0.08570  0.14620  Biso   1.000  C
  H128     1.0000 0.73650  0.10200  0.13490  Biso   1.000  H
  C155     1.0000 0.78844  0.12860  0.18184  Biso   1.000  C
  H129     1.0000 0.78550  0.17370  0.19440  Biso   1.000  H
  C156     1.0000 0.82223  0.10420  0.19875  Biso   1.000  C
  H130     1.0000 0.84190  0.13290  0.22260  Biso   1.000  H
  C157     1.0000 0.88029  0.94360  0.25921  Biso   1.000  C
  C158     1.0000 0.90882  0.89130  0.27920  Biso   1.000  C
  H131     1.0000 0.92190  0.88900  0.26790  Biso   1.000  H
  C159     1.0000 0.91780  0.84230  0.31610  Biso   1.000  C
  H132     1.0000 0.93690  0.80730  0.32950  Biso   1.000  H
  C160     1.0000 0.89830  0.84560  0.33310  Biso   1.000  C
  H133     1.0000 0.90440  0.81290  0.35780  Biso   1.000  H
  C161     1.0000 0.86980  0.89790  0.31307  Biso   1.000  C
  H134     1.0000 0.85680  0.90020  0.32440  Biso   1.000  H
  C162     1.0000 0.86080  0.94690  0.27615  Biso   1.000  C
  H135     1.0000 0.84170  0.98190  0.26280  Biso   1.000  H
  C163     1.0000 0.81618  0.16260  0.08360  Biso   1.000  C
  C164     1.0000 0.78214  0.13810  0.06549  Biso   1.000  C
  H136     1.0000 0.76810  0.17010  0.06950  Biso   1.000  H
  C165     1.0000 0.76901  0.06590  0.04140  Biso   1.000  C
  H137     1.0000 0.74620  0.04950  0.02930  Biso   1.000  H
  C166     1.0000 0.78992  0.01810  0.03542  Biso   1.000  C
  H138     1.0000 0.78110  0.96980  0.01930  Biso   1.000  H
  C167     1.0000 0.82396  0.04260  0.05352  Biso   1.000  C
  H139     1.0000 0.83800  0.01060  0.04950  Biso   1.000  H
  C168     1.0000 0.83709  0.11480  0.07761  Biso   1.000  C
  H140     1.0000 0.85990  0.13120  0.08970  Biso   1.000  H
  C169     1.0000 0.83097  0.31490  0.06512  Biso   1.000  C
  C170     1.0000 0.80883  0.29540  0.01804  Biso   1.000  C
  H141     1.0000 0.79340  0.25220  0.00770  Biso   1.000  H
  C171     1.0000 0.80979  0.34050  0.98650  Biso   1.000  C
  H142     1.0000 0.79500  0.32750  0.95500  Biso   1.000  H
  C172     1.0000 0.83289  0.40520  0.00200  Biso   1.000  C
  H143     1.0000 0.83350  0.43540  0.98080  Biso   1.000  H
  C173     1.0000 0.85504  0.42470  0.04910  Biso   1.000  C
  H144     1.0000 0.87050  0.46800  0.05940  Biso   1.000  H
  C174     1.0000 0.85407  0.37960  0.08060  Biso   1.000  C
  H145     1.0000 0.86890  0.39270  0.11210  Biso   1.000  H
  C175     1.0000 0.80048  0.30620  0.11108  Biso   1.000  C
  C176     1.0000 0.76944  0.33720  0.07140  Biso   1.000  C
  H146     1.0000 0.76550  0.33490  0.04290  Biso   1.000  H
  C177     1.0000 0.74432  0.37190  0.07440  Biso   1.000  C
  H147     1.0000 0.72350  0.39270  0.04780  Biso   1.000  H
  C178     1.0000 0.75023  0.37550  0.11700  Biso   1.000  C
  H148     1.0000 0.73340  0.39870  0.11900  Biso   1.000  H
  C179     1.0000 0.78127  0.34440  0.15670  Biso   1.000  C
  H149     1.0000 0.78520  0.34680  0.18520  Biso   1.000  H
  C180     1.0000 0.80640  0.30970  0.15373  Biso   1.000  C
  H150     1.0000 0.82720  0.28890  0.18030  Biso   1.000  H
  Cl5      1.0000 0.85299  0.26050  0.27941  Biso   1.000  Cl
  Cl6      1.0000 0.04280  0.45940  0.32972  Biso   1.000  Cl
  Cl7      1.0000 0.08006  0.23740  0.39408  Biso   1.000  Cl
  Cl8      1.0000 0.95411  0.04000  0.15820  Biso   1.000  Cl
  P6       1.0000 0.89570  0.51410  0.22864  Biso   1.000  P
  P7       1.0000 0.98203  0.39640  0.40078  Biso   1.000  P
  P8       1.0000 0.97502  0.07970  0.39354  Biso   1.000  P
  P9       1.0000 0.87092  0.00330  0.21070  Biso   1.000  P
  P10      1.0000 0.83210  0.25890  0.10836  Biso   1.000  P
  Au13     1.0000 0.00000  0.23253  0.25000  Biso   1.000  Au
  Ag13     1.0000 0.60250  0.75128  0.22916  Biso   1.000  Ag
  Ag14     1.0000 0.50853  0.87363  0.21414  Biso   1.000  Ag
  Ag15     1.0000 0.48223  0.72626  0.15958  Biso   1.000  Ag
  Ag16     1.0000 0.51763  0.59134  0.22316  Biso   1.000  Ag
  Ag17     1.0000 0.56414  0.65408  0.31606  Biso   1.000  Ag
  Ag18     1.0000 0.55998  0.82992  0.31309  Biso   1.000  Ag
  Au14     1.0000 0.58121  0.88767  0.25879  Biso   1.000  Au
  Au15     1.0000 0.53311  0.82544  0.16367  Biso   1.000  Au
  Au16     1.0000 0.53887  0.65191  0.16927  Biso   1.000  Au
  Au17     1.0000 0.59146  0.60806  0.26600  Biso   1.000  Au
  Au18     1.0000 0.61491  0.75157  0.32085  Biso   1.000  Au
  Au19     1.0000 0.55158  0.74092  0.23947  Biso   1.000  Au
  C181     1.0000 0.57520  0.09480  0.25699  Biso   1.000  C
  C182     1.0000 0.53939  0.07670  0.23070  Biso   1.000  C
  H151     1.0000 0.53170  0.02430  0.22090  Biso   1.000  H
  C183     1.0000 0.51511  0.13700  0.21920  Biso   1.000  C
  H152     1.0000 0.49120  0.12490  0.20170  Biso   1.000  H
  C184     1.0000 0.52660  0.21540  0.23400  Biso   1.000  C
  H153     1.0000 0.51040  0.25580  0.22630  Biso   1.000  H
  C185     1.0000 0.56240  0.23360  0.26020  Biso   1.000  C
  H154     1.0000 0.57020  0.28600  0.27010  Biso   1.000  H
  C186     1.0000 0.58673  0.17330  0.27170  Biso   1.000  C
  H155     1.0000 0.61070  0.18540  0.28930  Biso   1.000  H
  C187     1.0000 0.62131  0.03150  0.24010  Biso   1.000  C
  C188     1.0000 0.62673  0.10860  0.23080  Biso   1.000  C
  H156     1.0000 0.62170  0.15300  0.24150  Biso   1.000  H
  C189     1.0000 0.63960  0.11930  0.20540  Biso   1.000  C
  H157     1.0000 0.64320  0.17090  0.19920  Biso   1.000  H
  C190     1.0000 0.64700  0.05300  0.18940  Biso   1.000  C
  H158     1.0000 0.65570  0.06020  0.17240  Biso   1.000  H
  C191     1.0000 0.64160  0.97580  0.19870  Biso   1.000  C
  H159     1.0000 0.64660  0.93140  0.18790  Biso   1.000  H
  C192     1.0000 0.62880  0.96510  0.22400  Biso   1.000  C
  H160     1.0000 0.62510  0.91350  0.23030  Biso   1.000  H
  C193     1.0000 0.64024  0.03210  0.33150  Biso   1.000  C
  C194     1.0000 0.63160  0.05560  0.36037  Biso   1.000  C
  H161     1.0000 0.60800  0.05710  0.34890  Biso   1.000  H
  C195     1.0000 0.65810  0.07690  0.40636  Biso   1.000  C
  H162     1.0000 0.65240  0.09260  0.42570  Biso   1.000  H
  C196     1.0000 0.69330  0.07460  0.42349  Biso   1.000  C
  H163     1.0000 0.71110  0.08890  0.45430  Biso   1.000  H
  C197     1.0000 0.70199  0.05110  0.39460  Biso   1.000  C
  H164     1.0000 0.72550  0.04960  0.40610  Biso   1.000  H
  C198     1.0000 0.67544  0.02990  0.34870  Biso   1.000  C
  H165     1.0000 0.68120  0.01410  0.32940  Biso   1.000  H
  C199     1.0000 0.53000  0.99860  0.10800  Biso   1.000  C
  C200     1.0000 0.55020  0.03240  0.09620  Biso   1.000  C
  H166     1.0000 0.56010  0.99970  0.08600  Biso   1.000  H
  C201     1.0000 0.55570  0.11500  0.09950  Biso   1.000  C
  H167     1.0000 0.56920  0.13760  0.09160  Biso   1.000  H
  C202     1.0000 0.54090  0.16380  0.11480  Biso   1.000  C
  H168     1.0000 0.54450  0.21910  0.11700  Biso   1.000  H
  C203     1.0000 0.52060  0.13000  0.12660  Biso   1.000  C
  H169     1.0000 0.51070  0.16270  0.13680  Biso   1.000  H
  C204     1.0000 0.51520  0.04740  0.12330  Biso   1.000  C
  H170     1.0000 0.50160  0.02480  0.13120  Biso   1.000  H
  C205     1.0000 0.47250  0.90350  0.05320  Biso   1.000  C
  C206     1.0000 0.46010  0.95570  0.01620  Biso   1.000  C
  H171     1.0000 0.47590  0.98540  0.01480  Biso   1.000  H
  C207     1.0000 0.42390  0.96350  0.98130  Biso   1.000  C
  H172     1.0000 0.41560  0.99840  0.95650  Biso   1.000  H
  C208     1.0000 0.40020  0.91910  0.98340  Biso   1.000  C
  H173     1.0000 0.37600  0.92430  0.96010  Biso   1.000  H
  C209     1.0000 0.41270  0.86680  0.02050  Biso   1.000  C
  H174     1.0000 0.39680  0.83710  0.02190  Biso   1.000  H
  C210     1.0000 0.44880  0.85910  0.05530  Biso   1.000  C
  H175     1.0000 0.45720  0.82410  0.08010  Biso   1.000  H
  C211     1.0000 0.53750  0.85570  0.07510  Biso   1.000  C
  C212     1.0000 0.52210  0.85710  0.02790  Biso   1.000  C
  H176     1.0000 0.49940  0.87740  0.00660  Biso   1.000  H
  C213     1.0000 0.54070  0.82810  0.01240  Biso   1.000  C
  H177     1.0000 0.53040  0.82910  0.98080  Biso   1.000  H
  C214     1.0000 0.57470  0.79780  0.04420  Biso   1.000  C
  H178     1.0000 0.58710  0.77840  0.03380  Biso   1.000  H
  C215     1.0000 0.59010  0.79640  0.09140  Biso   1.000  C
  H179     1.0000 0.61280  0.77610  0.11260  Biso   1.000  H
  C216     1.0000 0.57150  0.82530  0.10690  Biso   1.000  C
  H180     1.0000 0.58180  0.82440  0.13850  Biso   1.000  H
  C217     1.0000 0.55990  0.56420  0.10510  Biso   1.000  C
  C218     1.0000 0.55740  0.51320  0.07280  Biso   1.000  C
  H181     1.0000 0.53670  0.48450  0.05200  Biso   1.000  H
  C219     1.0000 0.58590  0.50500  0.07170  Biso   1.000  C
  H182     1.0000 0.58430  0.47090  0.05000  Biso   1.000  H
  C220     1.0000 0.61690  0.54790  0.10280  Biso   1.000  C
  H183     1.0000 0.63600  0.54240  0.10200  Biso   1.000  H
  C221     1.0000 0.61940  0.59890  0.13510  Biso   1.000  C
  H184     1.0000 0.64010  0.62750  0.15600  Biso   1.000  H
  C222     1.0000 0.59090  0.60700  0.13630  Biso   1.000  C
  H185     1.0000 0.59250  0.64110  0.15790  Biso   1.000  H
  C223     1.0000 0.49357  0.63120  0.05290  Biso   1.000  C
  C224     1.0000 0.49850  0.65550  0.02040  Biso   1.000  C
  H186     1.0000 0.52000  0.64650  0.02590  Biso   1.000  H
  C225     1.0000 0.47120  0.69330  0.97950  Biso   1.000  C
  H187     1.0000 0.47440  0.70960  0.95780  Biso   1.000  H
  C226     1.0000 0.43900  0.70690  0.97120  Biso   1.000  C
  H188     1.0000 0.42070  0.73220  0.94390  Biso   1.000  H
  C227     1.0000 0.43410  0.68260  0.00370  Biso   1.000  C
  H189     1.0000 0.41250  0.69160  0.99820  Biso   1.000  H
  C228     1.0000 0.46140  0.64480  0.04460  Biso   1.000  C
  H190     1.0000 0.45810  0.62850  0.06630  Biso   1.000  H
  C229     1.0000 0.50459  0.48400  0.09970  Biso   1.000  C
  C230     1.0000 0.48450  0.44720  0.05620  Biso   1.000  C
  H191     1.0000 0.48210  0.47150  0.03130  Biso   1.000  H
  C231     1.0000 0.46790  0.37420  0.05010  Biso   1.000  C
  H192     1.0000 0.45450  0.34960  0.02100  Biso   1.000  H
  C232     1.0000 0.47150  0.33800  0.08740  Biso   1.000  C
  H193     1.0000 0.46050  0.28920  0.08320  Biso   1.000  H
  C233     1.0000 0.49160  0.37480  0.13080  Biso   1.000  C
  H194     1.0000 0.49400  0.35060  0.15580  Biso   1.000  H
  C234     1.0000 0.50820  0.44780  0.13700  Biso   1.000  C
  H195     1.0000 0.52160  0.47250  0.16610  Biso   1.000  H
  C235     1.0000 0.62930  0.42830  0.32610  Biso   1.000  C
  C236     1.0000 0.64790  0.35660  0.33770  Biso   1.000  C
  H196     1.0000 0.65990  0.34480  0.32560  Biso   1.000  H
  C237     1.0000 0.64850  0.30240  0.36750  Biso   1.000  C
  H197     1.0000 0.66090  0.25450  0.37530  Biso   1.000  H
  C238     1.0000 0.63050  0.32010  0.38560  Biso   1.000  C
  H198     1.0000 0.63090  0.28380  0.40550  Biso   1.000  H
  C239     1.0000 0.61190  0.39180  0.37400  Biso   1.000  C
  H199     1.0000 0.59980  0.40360  0.38610  Biso   1.000  H
  C240     1.0000 0.61130  0.44590  0.34420  Biso   1.000  C
  H200     1.0000 0.59890  0.49390  0.33640  Biso   1.000  H
  C241     1.0000 0.67331  0.53690  0.31996  Biso   1.000  C
  C242     1.0000 0.70264  0.49400  0.35558  Biso   1.000  C
  H201     1.0000 0.69970  0.44890  0.36810  Biso   1.000  H
  C243     1.0000 0.73643  0.51840  0.37250  Biso   1.000  C
  H202     1.0000 0.75610  0.48970  0.39630  Biso   1.000  H
  C244     1.0000 0.74089  0.58570  0.35380  Biso   1.000  C
  H203     1.0000 0.76350  0.60200  0.36510  Biso   1.000  H
  C245     1.0000 0.71156  0.62860  0.31816  Biso   1.000  C
  H204     1.0000 0.71450  0.67370  0.30560  Biso   1.000  H
  C246     1.0000 0.67777  0.60420  0.30125  Biso   1.000  C
  H205     1.0000 0.65810  0.63290  0.27740  Biso   1.000  H
  C247     1.0000 0.61971  0.44360  0.24079  Biso   1.000  C
  C248     1.0000 0.59118  0.39130  0.22080  Biso   1.000  C
  H206     1.0000 0.57810  0.38900  0.23210  Biso   1.000  H
  C249     1.0000 0.58220  0.34230  0.18390  Biso   1.000  C
  H207     1.0000 0.56310  0.30730  0.17050  Biso   1.000  H
  C250     1.0000 0.60170  0.34560  0.16690  Biso   1.000  C
  H208     1.0000 0.59560  0.31290  0.14220  Biso   1.000  H
  C251     1.0000 0.63020  0.39790  0.18693  Biso   1.000  C
  H209     1.0000 0.64320  0.40020  0.17560  Biso   1.000  H
  C252     1.0000 0.63920  0.44690  0.22385  Biso   1.000  C
  H210     1.0000 0.65830  0.48190  0.23720  Biso   1.000  H
  C253     1.0000 0.68382  0.66260  0.41640  Biso   1.000  C
  C254     1.0000 0.71786  0.63810  0.43451  Biso   1.000  C
  H211     1.0000 0.73190  0.67010  0.43050  Biso   1.000  H
  C255     1.0000 0.73099  0.56590  0.45860  Biso   1.000  C
  H212     1.0000 0.75380  0.54950  0.47070  Biso   1.000  H
  C256     1.0000 0.71008  0.51810  0.46458  Biso   1.000  C
  H213     1.0000 0.71890  0.46980  0.48070  Biso   1.000  H
  C257     1.0000 0.67604  0.54260  0.44648  Biso   1.000  C
  H214     1.0000 0.66200  0.51060  0.45050  Biso   1.000  H
  C258     1.0000 0.66291  0.61480  0.42239  Biso   1.000  C
  H215     1.0000 0.64010  0.63120  0.41030  Biso   1.000  H
  C259     1.0000 0.66903  0.81490  0.43488  Biso   1.000  C
  C260     1.0000 0.69117  0.79540  0.48196  Biso   1.000  C
  H216     1.0000 0.70660  0.75220  0.49230  Biso   1.000  H
  C261     1.0000 0.69021  0.84050  0.51350  Biso   1.000  C
  H217     1.0000 0.70500  0.82750  0.54500  Biso   1.000  H
  C262     1.0000 0.66711  0.90520  0.49800  Biso   1.000  C
  H218     1.0000 0.66650  0.93540  0.51920  Biso   1.000  H
  C263     1.0000 0.64496  0.92470  0.45090  Biso   1.000  C
  H219     1.0000 0.62950  0.96800  0.44060  Biso   1.000  H
  C264     1.0000 0.64593  0.87960  0.41940  Biso   1.000  C
  H220     1.0000 0.63110  0.89270  0.38790  Biso   1.000  H
  C265     1.0000 0.69952  0.80620  0.38892  Biso   1.000  C
  C266     1.0000 0.73056  0.83720  0.42860  Biso   1.000  C
  H221     1.0000 0.73450  0.83490  0.45710  Biso   1.000  H
  C267     1.0000 0.75568  0.87190  0.42560  Biso   1.000  C
  H222     1.0000 0.77650  0.89270  0.45220  Biso   1.000  H
  C268     1.0000 0.74977  0.87550  0.38300  Biso   1.000  C
  H223     1.0000 0.76660  0.89870  0.38100  Biso   1.000  H
  C269     1.0000 0.71873  0.84440  0.34330  Biso   1.000  C
  H224     1.0000 0.71480  0.84680  0.31480  Biso   1.000  H
  C270     1.0000 0.69360  0.80970  0.34627  Biso   1.000  C
  H225     1.0000 0.67280  0.78890  0.31970  Biso   1.000  H
  Cl9      1.0000 0.64701  0.76050  0.22059  Biso   1.000  Cl
  Cl10     1.0000 0.45720  0.95940  0.17028  Biso   1.000  Cl
  Cl11     1.0000 0.41994  0.73740  0.10592  Biso   1.000  Cl
  Cl12     1.0000 0.54589  0.54000  0.34180  Biso   1.000  Cl
  P11      1.0000 0.60430  0.01410  0.27136  Biso   1.000  P
  P12      1.0000 0.51797  0.89640  0.09922  Biso   1.000  P
  P13      1.0000 0.52498  0.57970  0.10646  Biso   1.000  P
  P14      1.0000 0.62908  0.50330  0.28930  Biso   1.000  P
  P15      1.0000 0.66790  0.75890  0.39164  Biso   1.000  P
  Ag19     1.0000 0.39750  0.75128  0.27084  Biso   1.000  Ag
  Ag20     1.0000 0.49147  0.87363  0.28586  Biso   1.000  Ag
  Ag21     1.0000 0.51777  0.72626  0.34042  Biso   1.000  Ag
  Ag22     1.0000 0.48237  0.59134  0.27684  Biso   1.000  Ag
  Ag23     1.0000 0.43586  0.65408  0.18394  Biso   1.000  Ag
  Ag24     1.0000 0.44002  0.82992  0.18691  Biso   1.000  Ag
  Au20     1.0000 0.41879  0.88767  0.24121  Biso   1.000  Au
  Au21     1.0000 0.46689  0.82544  0.33633  Biso   1.000  Au
  Au22     1.0000 0.46113  0.65191  0.33073  Biso   1.000  Au
  Au23     1.0000 0.40854  0.60806  0.23400  Biso   1.000  Au
  Au24     1.0000 0.38509  0.75157  0.17915  Biso   1.000  Au
  Au25     1.0000 0.44842  0.74092  0.26053  Biso   1.000  Au
  C271     1.0000 0.42480  0.09480  0.24301  Biso   1.000  C
  C272     1.0000 0.46061  0.07670  0.26930  Biso   1.000  C
  H226     1.0000 0.46830  0.02430  0.27910  Biso   1.000  H
  C273     1.0000 0.48489  0.13700  0.28080  Biso   1.000  C
  H227     1.0000 0.50880  0.12490  0.29830  Biso   1.000  H
  C274     1.0000 0.47340  0.21540  0.26600  Biso   1.000  C
  H228     1.0000 0.48960  0.25580  0.27370  Biso   1.000  H
  C275     1.0000 0.43760  0.23360  0.23980  Biso   1.000  C
  H229     1.0000 0.42980  0.28600  0.22990  Biso   1.000  H
  C276     1.0000 0.41327  0.17330  0.22830  Biso   1.000  C
  H230     1.0000 0.38930  0.18540  0.21070  Biso   1.000  H
  C277     1.0000 0.37869  0.03150  0.25990  Biso   1.000  C
  C278     1.0000 0.37327  0.10860  0.26920  Biso   1.000  C
  H231     1.0000 0.37830  0.15300  0.25850  Biso   1.000  H
  C279     1.0000 0.36040  0.11930  0.29460  Biso   1.000  C
  H232     1.0000 0.35680  0.17090  0.30080  Biso   1.000  H
  C280     1.0000 0.35300  0.05300  0.31060  Biso   1.000  C
  H233     1.0000 0.34430  0.06020  0.32760  Biso   1.000  H
  C281     1.0000 0.35840  0.97580  0.30130  Biso   1.000  C
  H234     1.0000 0.35340  0.93140  0.31210  Biso   1.000  H
  C282     1.0000 0.37120  0.96510  0.27600  Biso   1.000  C
  H235     1.0000 0.37490  0.91350  0.26970  Biso   1.000  H
  C283     1.0000 0.35976  0.03210  0.16850  Biso   1.000  C
  C284     1.0000 0.36840  0.05560  0.13963  Biso   1.000  C
  H236     1.0000 0.39200  0.05710  0.15110  Biso   1.000  H
  C285     1.0000 0.34190  0.07690  0.09364  Biso   1.000  C
  H237     1.0000 0.34760  0.09260  0.07430  Biso   1.000  H
  C286     1.0000 0.30670  0.07460  0.07651  Biso   1.000  C
  H238     1.0000 0.28890  0.08890  0.04570  Biso   1.000  H
  C287     1.0000 0.29801  0.05110  0.10540  Biso   1.000  C
  H239     1.0000 0.27450  0.04960  0.09390  Biso   1.000  H
  C288     1.0000 0.32456  0.02990  0.15130  Biso   1.000  C
  H240     1.0000 0.31880  0.01410  0.17060  Biso   1.000  H
  C289     1.0000 0.47000  0.99860  0.39200  Biso   1.000  C
  C290     1.0000 0.44980  0.03240  0.40380  Biso   1.000  C
  H241     1.0000 0.43990  0.99970  0.41400  Biso   1.000  H
  C291     1.0000 0.44430  0.11500  0.40050  Biso   1.000  C
  H242     1.0000 0.43080  0.13760  0.40840  Biso   1.000  H
  C292     1.0000 0.45910  0.16380  0.38520  Biso   1.000  C
  H243     1.0000 0.45550  0.21910  0.38300  Biso   1.000  H
  C293     1.0000 0.47940  0.13000  0.37340  Biso   1.000  C
  H244     1.0000 0.48930  0.16270  0.36320  Biso   1.000  H
  C294     1.0000 0.48480  0.04740  0.37670  Biso   1.000  C
  H245     1.0000 0.49840  0.02480  0.36880  Biso   1.000  H
  C295     1.0000 0.52750  0.90350  0.44680  Biso   1.000  C
  C296     1.0000 0.53990  0.95570  0.48380  Biso   1.000  C
  H246     1.0000 0.52410  0.98540  0.48520  Biso   1.000  H
  C297     1.0000 0.57610  0.96350  0.51870  Biso   1.000  C
  H247     1.0000 0.58440  0.99840  0.54350  Biso   1.000  H
  C298     1.0000 0.59980  0.91910  0.51660  Biso   1.000  C
  H248     1.0000 0.62400  0.92430  0.53990  Biso   1.000  H
  C299     1.0000 0.58730  0.86680  0.47950  Biso   1.000  C
  H249     1.0000 0.60320  0.83710  0.47810  Biso   1.000  H
  C300     1.0000 0.55120  0.85910  0.44470  Biso   1.000  C
  H250     1.0000 0.54280  0.82410  0.41990  Biso   1.000  H
  C301     1.0000 0.46250  0.85570  0.42490  Biso   1.000  C
  C302     1.0000 0.47790  0.85710  0.47210  Biso   1.000  C
  H251     1.0000 0.50060  0.87740  0.49340  Biso   1.000  H
  C303     1.0000 0.45930  0.82810  0.48760  Biso   1.000  C
  H252     1.0000 0.46960  0.82910  0.51920  Biso   1.000  H
  C304     1.0000 0.42530  0.79780  0.45580  Biso   1.000  C
  H253     1.0000 0.41290  0.77840  0.46620  Biso   1.000  H
  C305     1.0000 0.40990  0.79640  0.40860  Biso   1.000  C
  H254     1.0000 0.38720  0.77610  0.38740  Biso   1.000  H
  C306     1.0000 0.42850  0.82530  0.39310  Biso   1.000  C
  H255     1.0000 0.41820  0.82440  0.36150  Biso   1.000  H
  C307     1.0000 0.44010  0.56420  0.39490  Biso   1.000  C
  C308     1.0000 0.44260  0.51320  0.42720  Biso   1.000  C
  H256     1.0000 0.46330  0.48450  0.44800  Biso   1.000  H
  C309     1.0000 0.41410  0.50500  0.42830  Biso   1.000  C
  H257     1.0000 0.41570  0.47090  0.45000  Biso   1.000  H
  C310     1.0000 0.38310  0.54790  0.39720  Biso   1.000  C
  H258     1.0000 0.36400  0.54240  0.39800  Biso   1.000  H
  C311     1.0000 0.38060  0.59890  0.36490  Biso   1.000  C
  H259     1.0000 0.35990  0.62750  0.34400  Biso   1.000  H
  C312     1.0000 0.40910  0.60700  0.36370  Biso   1.000  C
  H260     1.0000 0.40750  0.64110  0.34210  Biso   1.000  H
  C313     1.0000 0.50643  0.63120  0.44710  Biso   1.000  C
  C314     1.0000 0.50150  0.65550  0.47960  Biso   1.000  C
  H261     1.0000 0.48000  0.64650  0.47410  Biso   1.000  H
  C315     1.0000 0.52880  0.69330  0.52050  Biso   1.000  C
  H262     1.0000 0.52560  0.70960  0.54220  Biso   1.000  H
  C316     1.0000 0.56100  0.70690  0.52880  Biso   1.000  C
  H263     1.0000 0.57930  0.73220  0.55610  Biso   1.000  H
  C317     1.0000 0.56590  0.68260  0.49630  Biso   1.000  C
  H264     1.0000 0.58750  0.69160  0.50180  Biso   1.000  H
  C318     1.0000 0.53860  0.64480  0.45540  Biso   1.000  C
  H265     1.0000 0.54190  0.62850  0.43370  Biso   1.000  H
  C319     1.0000 0.49541  0.48400  0.40030  Biso   1.000  C
  C320     1.0000 0.51550  0.44720  0.44380  Biso   1.000  C
  H266     1.0000 0.51790  0.47150  0.46870  Biso   1.000  H
  C321     1.0000 0.53210  0.37420  0.44990  Biso   1.000  C
  H267     1.0000 0.54550  0.34960  0.47900  Biso   1.000  H
  C322     1.0000 0.52850  0.33800  0.41260  Biso   1.000  C
  H268     1.0000 0.53950  0.28920  0.41680  Biso   1.000  H
  C323     1.0000 0.50840  0.37480  0.36920  Biso   1.000  C
  H269     1.0000 0.50600  0.35060  0.34420  Biso   1.000  H
  C324     1.0000 0.49180  0.44780  0.36300  Biso   1.000  C
  H270     1.0000 0.47840  0.47250  0.33390  Biso   1.000  H
  C325     1.0000 0.37070  0.42830  0.17390  Biso   1.000  C
  C326     1.0000 0.35210  0.35660  0.16230  Biso   1.000  C
  H271     1.0000 0.34010  0.34480  0.17440  Biso   1.000  H
  C327     1.0000 0.35150  0.30240  0.13250  Biso   1.000  C
  H272     1.0000 0.33910  0.25450  0.12470  Biso   1.000  H
  C328     1.0000 0.36950  0.32010  0.11440  Biso   1.000  C
  H273     1.0000 0.36910  0.28380  0.09450  Biso   1.000  H
  C329     1.0000 0.38810  0.39180  0.12600  Biso   1.000  C
  H274     1.0000 0.40020  0.40360  0.11390  Biso   1.000  H
  C330     1.0000 0.38870  0.44590  0.15580  Biso   1.000  C
  H275     1.0000 0.40110  0.49390  0.16360  Biso   1.000  H
  C331     1.0000 0.32669  0.53690  0.18004  Biso   1.000  C
  C332     1.0000 0.29736  0.49400  0.14442  Biso   1.000  C
  H276     1.0000 0.30030  0.44890  0.13190  Biso   1.000  H
  C333     1.0000 0.26357  0.51840  0.12750  Biso   1.000  C
  H277     1.0000 0.24390  0.48970  0.10370  Biso   1.000  H
  C334     1.0000 0.25911  0.58570  0.14620  Biso   1.000  C
  H278     1.0000 0.23650  0.60200  0.13490  Biso   1.000  H
  C335     1.0000 0.28844  0.62860  0.18184  Biso   1.000  C
  H279     1.0000 0.28550  0.67370  0.19440  Biso   1.000  H
  C336     1.0000 0.32223  0.60420  0.19875  Biso   1.000  C
  H280     1.0000 0.34190  0.63290  0.22260  Biso   1.000  H
  C337     1.0000 0.38029  0.44360  0.25921  Biso   1.000  C
  C338     1.0000 0.40882  0.39130  0.27920  Biso   1.000  C
  H281     1.0000 0.42190  0.38900  0.26790  Biso   1.000  H
  C339     1.0000 0.41780  0.34230  0.31610  Biso   1.000  C
  H282     1.0000 0.43690  0.30730  0.32950  Biso   1.000  H
  C340     1.0000 0.39830  0.34560  0.33310  Biso   1.000  C
  H283     1.0000 0.40440  0.31290  0.35780  Biso   1.000  H
  C341     1.0000 0.36980  0.39790  0.31307  Biso   1.000  C
  H284     1.0000 0.35680  0.40020  0.32440  Biso   1.000  H
  C342     1.0000 0.36080  0.44690  0.27615  Biso   1.000  C
  H285     1.0000 0.34170  0.48190  0.26280  Biso   1.000  H
  C343     1.0000 0.31618  0.66260  0.08360  Biso   1.000  C
  C344     1.0000 0.28214  0.63810  0.06549  Biso   1.000  C
  H286     1.0000 0.26810  0.67010  0.06950  Biso   1.000  H
  C345     1.0000 0.26901  0.56590  0.04140  Biso   1.000  C
  H287     1.0000 0.24620  0.54950  0.02930  Biso   1.000  H
  C346     1.0000 0.28992  0.51810  0.03542  Biso   1.000  C
  H288     1.0000 0.28110  0.46980  0.01930  Biso   1.000  H
  C347     1.0000 0.32396  0.54260  0.05352  Biso   1.000  C
  H289     1.0000 0.33800  0.51060  0.04950  Biso   1.000  H
  C348     1.0000 0.33709  0.61480  0.07761  Biso   1.000  C
  H290     1.0000 0.35990  0.63120  0.08970  Biso   1.000  H
  C349     1.0000 0.33097  0.81490  0.06512  Biso   1.000  C
  C350     1.0000 0.30883  0.79540  0.01804  Biso   1.000  C
  H291     1.0000 0.29340  0.75220  0.00770  Biso   1.000  H
  C351     1.0000 0.30979  0.84050  0.98650  Biso   1.000  C
  H292     1.0000 0.29500  0.82750  0.95500  Biso   1.000  H
  C352     1.0000 0.33289  0.90520  0.00200  Biso   1.000  C
  H293     1.0000 0.33350  0.93540  0.98080  Biso   1.000  H
  C353     1.0000 0.35504  0.92470  0.04910  Biso   1.000  C
  H294     1.0000 0.37050  0.96800  0.05940  Biso   1.000  H
  C354     1.0000 0.35407  0.87960  0.08060  Biso   1.000  C
  H295     1.0000 0.36890  0.89270  0.11210  Biso   1.000  H
  C355     1.0000 0.30048  0.80620  0.11108  Biso   1.000  C
  C356     1.0000 0.26944  0.83720  0.07140  Biso   1.000  C
  H296     1.0000 0.26550  0.83490  0.04290  Biso   1.000  H
  C357     1.0000 0.24432  0.87190  0.07440  Biso   1.000  C
  H297     1.0000 0.22350  0.89270  0.04780  Biso   1.000  H
  C358     1.0000 0.25023  0.87550  0.11700  Biso   1.000  C
  H298     1.0000 0.23340  0.89870  0.11900  Biso   1.000  H
  C359     1.0000 0.28127  0.84440  0.15670  Biso   1.000  C
  H299     1.0000 0.28520  0.84680  0.18520  Biso   1.000  H
  C360     1.0000 0.30640  0.80970  0.15373  Biso   1.000  C
  H300     1.0000 0.32720  0.78890  0.18030  Biso   1.000  H
  Cl13     1.0000 0.35299  0.76050  0.27941  Biso   1.000  Cl
  Cl14     1.0000 0.54280  0.95940  0.32972  Biso   1.000  Cl
  Cl15     1.0000 0.58006  0.73740  0.39408  Biso   1.000  Cl
  Cl16     1.0000 0.45411  0.54000  0.15820  Biso   1.000  Cl
  P16      1.0000 0.39570  0.01410  0.22864  Biso   1.000  P
  P17      1.0000 0.48203  0.89640  0.40078  Biso   1.000  P
  P18      1.0000 0.47502  0.57970  0.39354  Biso   1.000  P
  P19      1.0000 0.37092  0.50330  0.21070  Biso   1.000  P
  P20      1.0000 0.33210  0.75890  0.10836  Biso   1.000  P
  Au26     1.0000 0.50000  0.73253  0.25000  Biso   1.000  Au
  Ag25     1.0000 0.89750  0.74872  0.77084  Biso   1.000  Ag
  Ag26     1.0000 0.99147  0.62637  0.78586  Biso   1.000  Ag
  Ag27     1.0000 0.01777  0.77374  0.84042  Biso   1.000  Ag
  Ag28     1.0000 0.98237  0.90866  0.77684  Biso   1.000  Ag
  Ag29     1.0000 0.93586  0.84592  0.68394  Biso   1.000  Ag
  Ag30     1.0000 0.94002  0.67008  0.68691  Biso   1.000  Ag
  Au27     1.0000 0.91879  0.61233  0.74121  Biso   1.000  Au
  Au28     1.0000 0.96689  0.67456  0.83633  Biso   1.000  Au
  Au29     1.0000 0.96113  0.84809  0.83073  Biso   1.000  Au
  Au30     1.0000 0.90854  0.89194  0.73400  Biso   1.000  Au
  Au31     1.0000 0.88509  0.74843  0.67916  Biso   1.000  Au
  Au32     1.0000 0.94842  0.75908  0.76053  Biso   1.000  Au
  C361     1.0000 0.92480  0.40520  0.74301  Biso   1.000  C
  C362     1.0000 0.96061  0.42330  0.76930  Biso   1.000  C
  H301     1.0000 0.96830  0.47570  0.77910  Biso   1.000  H
  C363     1.0000 0.98489  0.36300  0.78080  Biso   1.000  C
  H302     1.0000 0.00880  0.37510  0.79830  Biso   1.000  H
  C364     1.0000 0.97340  0.28460  0.76600  Biso   1.000  C
  H303     1.0000 0.98960  0.24420  0.77370  Biso   1.000  H
  C365     1.0000 0.93760  0.26640  0.73980  Biso   1.000  C
  H304     1.0000 0.92980  0.21400  0.72990  Biso   1.000  H
  C366     1.0000 0.91327  0.32670  0.72830  Biso   1.000  C
  H305     1.0000 0.88930  0.31460  0.71070  Biso   1.000  H
  C367     1.0000 0.87869  0.46850  0.75990  Biso   1.000  C
  C368     1.0000 0.87327  0.39140  0.76920  Biso   1.000  C
  H306     1.0000 0.87830  0.34700  0.75850  Biso   1.000  H
  C369     1.0000 0.86040  0.38070  0.79460  Biso   1.000  C
  H307     1.0000 0.85680  0.32910  0.80080  Biso   1.000  H
  C370     1.0000 0.85300  0.44700  0.81060  Biso   1.000  C
  H308     1.0000 0.84430  0.43980  0.82760  Biso   1.000  H
  C371     1.0000 0.85840  0.52420  0.80130  Biso   1.000  C
  H309     1.0000 0.85340  0.56860  0.81210  Biso   1.000  H
  C372     1.0000 0.87120  0.53490  0.77600  Biso   1.000  C
  H310     1.0000 0.87490  0.58650  0.76970  Biso   1.000  H
  C373     1.0000 0.85976  0.46790  0.66850  Biso   1.000  C
  C374     1.0000 0.86840  0.44440  0.63963  Biso   1.000  C
  H311     1.0000 0.89200  0.44290  0.65110  Biso   1.000  H
  C375     1.0000 0.84190  0.42310  0.59364  Biso   1.000  C
  H312     1.0000 0.84760  0.40740  0.57430  Biso   1.000  H
  C376     1.0000 0.80670  0.42540  0.57651  Biso   1.000  C
  H313     1.0000 0.78890  0.41110  0.54570  Biso   1.000  H
  C377     1.0000 0.79801  0.44890  0.60540  Biso   1.000  C
  H314     1.0000 0.77450  0.45040  0.59390  Biso   1.000  H
  C378     1.0000 0.82456  0.47010  0.65130  Biso   1.000  C
  H315     1.0000 0.81880  0.48590  0.67060  Biso   1.000  H
  C379     1.0000 0.97000  0.50140  0.89200  Biso   1.000  C
  C380     1.0000 0.94980  0.46760  0.90380  Biso   1.000  C
  H316     1.0000 0.93990  0.50030  0.91400  Biso   1.000  H
  C381     1.0000 0.94430  0.38500  0.90050  Biso   1.000  C
  H317     1.0000 0.93080  0.36240  0.90840  Biso   1.000  H
  C382     1.0000 0.95910  0.33620  0.88520  Biso   1.000  C
  H318     1.0000 0.95550  0.28090  0.88300  Biso   1.000  H
  C383     1.0000 0.97940  0.37000  0.87340  Biso   1.000  C
  H319     1.0000 0.98930  0.33730  0.86320  Biso   1.000  H
  C384     1.0000 0.98480  0.45260  0.87670  Biso   1.000  C
  H320     1.0000 0.99840  0.47520  0.86880  Biso   1.000  H
  C385     1.0000 0.02750  0.59650  0.94680  Biso   1.000  C
  C386     1.0000 0.03990  0.54430  0.98380  Biso   1.000  C
  H321     1.0000 0.02410  0.51460  0.98520  Biso   1.000  H
  C387     1.0000 0.07610  0.53650  0.01870  Biso   1.000  C
  H322     1.0000 0.08440  0.50160  0.04350  Biso   1.000  H
  C388     1.0000 0.09980  0.58090  0.01660  Biso   1.000  C
  H323     1.0000 0.12400  0.57570  0.03990  Biso   1.000  H
  C389     1.0000 0.08730  0.63320  0.97950  Biso   1.000  C
  H324     1.0000 0.10320  0.66290  0.97810  Biso   1.000  H
  C390     1.0000 0.05120  0.64090  0.94470  Biso   1.000  C
  H325     1.0000 0.04280  0.67590  0.91990  Biso   1.000  H
  C391     1.0000 0.96250  0.64430  0.92490  Biso   1.000  C
  C392     1.0000 0.97790  0.64290  0.97210  Biso   1.000  C
  H326     1.0000 0.00060  0.62260  0.99340  Biso   1.000  H
  C393     1.0000 0.95930  0.67190  0.98760  Biso   1.000  C
  H327     1.0000 0.96960  0.67090  0.01920  Biso   1.000  H
  C394     1.0000 0.92530  0.70220  0.95580  Biso   1.000  C
  H328     1.0000 0.91290  0.72160  0.96620  Biso   1.000  H
  C395     1.0000 0.90990  0.70360  0.90860  Biso   1.000  C
  H329     1.0000 0.88720  0.72390  0.88740  Biso   1.000  H
  C396     1.0000 0.92850  0.67470  0.89310  Biso   1.000  C
  H330     1.0000 0.91820  0.67560  0.86150  Biso   1.000  H
  C397     1.0000 0.94010  0.93580  0.89490  Biso   1.000  C
  C398     1.0000 0.94260  0.98680  0.92720  Biso   1.000  C
  H331     1.0000 0.96330  0.01550  0.94800  Biso   1.000  H
  C399     1.0000 0.91410  0.99500  0.92830  Biso   1.000  C
  H332     1.0000 0.91570  0.02910  0.95000  Biso   1.000  H
  C400     1.0000 0.88310  0.95210  0.89720  Biso   1.000  C
  H333     1.0000 0.86400  0.95760  0.89800  Biso   1.000  H
  C401     1.0000 0.88060  0.90110  0.86490  Biso   1.000  C
  H334     1.0000 0.85990  0.87250  0.84400  Biso   1.000  H
  C402     1.0000 0.90910  0.89300  0.86370  Biso   1.000  C
  H335     1.0000 0.90750  0.85890  0.84210  Biso   1.000  H
  C403     1.0000 0.00643  0.86880  0.94710  Biso   1.000  C
  C404     1.0000 0.00150  0.84450  0.97960  Biso   1.000  C
  H336     1.0000 0.98000  0.85350  0.97410  Biso   1.000  H
  C405     1.0000 0.02880  0.80670  0.02050  Biso   1.000  C
  H337     1.0000 0.02560  0.79040  0.04220  Biso   1.000  H
  C406     1.0000 0.06100  0.79310  0.02880  Biso   1.000  C
  H338     1.0000 0.07930  0.76780  0.05610  Biso   1.000  H
  C407     1.0000 0.06590  0.81740  0.99630  Biso   1.000  C
  H339     1.0000 0.08750  0.80840  0.00180  Biso   1.000  H
  C408     1.0000 0.03860  0.85520  0.95540  Biso   1.000  C
  H340     1.0000 0.04190  0.87150  0.93370  Biso   1.000  H
  C409     1.0000 0.99541  0.01600  0.90030  Biso   1.000  C
  C410     1.0000 0.01550  0.05280  0.94380  Biso   1.000  C
  H341     1.0000 0.01790  0.02850  0.96870  Biso   1.000  H
  C411     1.0000 0.03210  0.12580  0.94990  Biso   1.000  C
  H342     1.0000 0.04550  0.15040  0.97900  Biso   1.000  H
  C412     1.0000 0.02850  0.16200  0.91260  Biso   1.000  C
  H343     1.0000 0.03950  0.21080  0.91680  Biso   1.000  H
  C413     1.0000 0.00840  0.12520  0.86920  Biso   1.000  C
  H344     1.0000 0.00600  0.14940  0.84420  Biso   1.000  H
  C414     1.0000 0.99180  0.05220  0.86300  Biso   1.000  C
  H345     1.0000 0.97840  0.02750  0.83390  Biso   1.000  H
  C415     1.0000 0.87070  0.07170  0.67390  Biso   1.000  C
  C416     1.0000 0.85210  0.14340  0.66230  Biso   1.000  C
  H346     1.0000 0.84010  0.15520  0.67440  Biso   1.000  H
  C417     1.0000 0.85150  0.19760  0.63250  Biso   1.000  C
  H347     1.0000 0.83910  0.24550  0.62470  Biso   1.000  H
  C418     1.0000 0.86950  0.17990  0.61440  Biso   1.000  C
  H348     1.0000 0.86910  0.21620  0.59450  Biso   1.000  H
  C419     1.0000 0.88810  0.10820  0.62600  Biso   1.000  C
  H349     1.0000 0.90020  0.09640  0.61390  Biso   1.000  H
  C420     1.0000 0.88870  0.05410  0.65580  Biso   1.000  C
  H350     1.0000 0.90110  0.00610  0.66360  Biso   1.000  H
  C421     1.0000 0.82669  0.96310  0.68004  Biso   1.000  C
  C422     1.0000 0.79736  0.00600  0.64442  Biso   1.000  C
  H351     1.0000 0.80030  0.05110  0.63190  Biso   1.000  H
  C423     1.0000 0.76357  0.98160  0.62750  Biso   1.000  C
  H352     1.0000 0.74390  0.01030  0.60370  Biso   1.000  H
  C424     1.0000 0.75911  0.91430  0.64620  Biso   1.000  C
  H353     1.0000 0.73650  0.89800  0.63490  Biso   1.000  H
  C425     1.0000 0.78844  0.87140  0.68184  Biso   1.000  C
  H354     1.0000 0.78550  0.82630  0.69440  Biso   1.000  H
  C426     1.0000 0.82223  0.89580  0.69875  Biso   1.000  C
  H355     1.0000 0.84190  0.86710  0.72260  Biso   1.000  H
  C427     1.0000 0.88029  0.05640  0.75921  Biso   1.000  C
  C428     1.0000 0.90882  0.10870  0.77920  Biso   1.000  C
  H356     1.0000 0.92190  0.11100  0.76790  Biso   1.000  H
  C429     1.0000 0.91780  0.15770  0.81610  Biso   1.000  C
  H357     1.0000 0.93690  0.19270  0.82950  Biso   1.000  H
  C430     1.0000 0.89830  0.15440  0.83310  Biso   1.000  C
  H358     1.0000 0.90440  0.18710  0.85780  Biso   1.000  H
  C431     1.0000 0.86980  0.10210  0.81307  Biso   1.000  C
  H359     1.0000 0.85680  0.09980  0.82440  Biso   1.000  H
  C432     1.0000 0.86080  0.05310  0.77615  Biso   1.000  C
  H360     1.0000 0.84170  0.01810  0.76280  Biso   1.000  H
  C433     1.0000 0.81618  0.83740  0.58360  Biso   1.000  C
  C434     1.0000 0.78214  0.86190  0.56549  Biso   1.000  C
  H361     1.0000 0.76810  0.82990  0.56950  Biso   1.000  H
  C435     1.0000 0.76901  0.93410  0.54140  Biso   1.000  C
  H362     1.0000 0.74620  0.95050  0.52930  Biso   1.000  H
  C436     1.0000 0.78992  0.98190  0.53542  Biso   1.000  C
  H363     1.0000 0.78110  0.03020  0.51930  Biso   1.000  H
  C437     1.0000 0.82396  0.95740  0.55352  Biso   1.000  C
  H364     1.0000 0.83800  0.98940  0.54950  Biso   1.000  H
  C438     1.0000 0.83709  0.88520  0.57761  Biso   1.000  C
  H365     1.0000 0.85990  0.86880  0.58970  Biso   1.000  H
  C439     1.0000 0.83097  0.68510  0.56512  Biso   1.000  C
  C440     1.0000 0.80883  0.70460  0.51804  Biso   1.000  C
  H366     1.0000 0.79340  0.74780  0.50770  Biso   1.000  H
  C441     1.0000 0.80979  0.65950  0.48650  Biso   1.000  C
  H367     1.0000 0.79500  0.67250  0.45500  Biso   1.000  H
  C442     1.0000 0.83289  0.59480  0.50200  Biso   1.000  C
  H368     1.0000 0.83350  0.56460  0.48080  Biso   1.000  H
  C443     1.0000 0.85504  0.57530  0.54910  Biso   1.000  C
  H369     1.0000 0.87050  0.53200  0.55940  Biso   1.000  H
  C444     1.0000 0.85407  0.62040  0.58060  Biso   1.000  C
  H370     1.0000 0.86890  0.60730  0.61210  Biso   1.000  H
  C445     1.0000 0.80048  0.69380  0.61108  Biso   1.000  C
  C446     1.0000 0.76944  0.66280  0.57140  Biso   1.000  C
  H371     1.0000 0.76550  0.66510  0.54290  Biso   1.000  H
  C447     1.0000 0.74432  0.62810  0.57440  Biso   1.000  C
  H372     1.0000 0.72350  0.60730  0.54780  Biso   1.000  H
  C448     1.0000 0.75023  0.62450  0.61700  Biso   1.000  C
  H373     1.0000 0.73340  0.60130  0.61900  Biso   1.000  H
  C449     1.0000 0.78127  0.65560  0.65670  Biso   1.000  C
  H374     1.0000 0.78520  0.65320  0.68520  Biso   1.000  H
  C450     1.0000 0.80640  0.69030  0.65373  Biso   1.000  C
  H375     1.0000 0.82720  0.71110  0.68030  Biso   1.000  H
  Cl17     1.0000 0.85299  0.73950  0.77941  Biso   1.000  Cl
  Cl18     1.0000 0.04280  0.54060  0.82972  Biso   1.000  Cl
  Cl19     1.0000 0.08006  0.76260  0.89408  Biso   1.000  Cl
  Cl20     1.0000 0.95411  0.96000  0.65820  Biso   1.000  Cl
  P21      1.0000 0.89570  0.48590  0.72864  Biso   1.000  P
  P22      1.0000 0.98203  0.60360  0.90078  Biso   1.000  P
  P23      1.0000 0.97502  0.92030  0.89354  Biso   1.000  P
  P24      1.0000 0.87092  0.99670  0.71070  Biso   1.000  P
  P25      1.0000 0.83210  0.74110  0.60836  Biso   1.000  P
  Ag31     1.0000 0.10250  0.74872  0.72916  Biso   1.000  Ag
  Ag32     1.0000 0.00853  0.62637  0.71414  Biso   1.000  Ag
  Ag33     1.0000 0.98223  0.77374  0.65958  Biso   1.000  Ag
  Ag34     1.0000 0.01763  0.90866  0.72316  Biso   1.000  Ag
  Ag35     1.0000 0.06414  0.84592  0.81606  Biso   1.000  Ag
  Ag36     1.0000 0.05998  0.67008  0.81309  Biso   1.000  Ag
  Au33     1.0000 0.08121  0.61233  0.75879  Biso   1.000  Au
  Au34     1.0000 0.03311  0.67456  0.66367  Biso   1.000  Au
  Au35     1.0000 0.03887  0.84809  0.66927  Biso   1.000  Au
  Au36     1.0000 0.09146  0.89194  0.76600  Biso   1.000  Au
  Au37     1.0000 0.11491  0.74843  0.82085  Biso   1.000  Au
  Au38     1.0000 0.05158  0.75908  0.73947  Biso   1.000  Au
  C451     1.0000 0.07520  0.40520  0.75699  Biso   1.000  C
  C452     1.0000 0.03939  0.42330  0.73070  Biso   1.000  C
  H376     1.0000 0.03170  0.47570  0.72090  Biso   1.000  H
  C453     1.0000 0.01511  0.36300  0.71920  Biso   1.000  C
  H377     1.0000 0.99120  0.37510  0.70170  Biso   1.000  H
  C454     1.0000 0.02660  0.28460  0.73400  Biso   1.000  C
  H378     1.0000 0.01040  0.24420  0.72630  Biso   1.000  H
  C455     1.0000 0.06240  0.26640  0.76020  Biso   1.000  C
  H379     1.0000 0.07020  0.21400  0.77010  Biso   1.000  H
  C456     1.0000 0.08673  0.32670  0.77170  Biso   1.000  C
  H380     1.0000 0.11070  0.31460  0.78930  Biso   1.000  H
  C457     1.0000 0.12131  0.46850  0.74010  Biso   1.000  C
  C458     1.0000 0.12673  0.39140  0.73080  Biso   1.000  C
  H381     1.0000 0.12170  0.34700  0.74150  Biso   1.000  H
  C459     1.0000 0.13960  0.38070  0.70540  Biso   1.000  C
  H382     1.0000 0.14320  0.32910  0.69920  Biso   1.000  H
  C460     1.0000 0.14700  0.44700  0.68940  Biso   1.000  C
  H383     1.0000 0.15570  0.43980  0.67240  Biso   1.000  H
  C461     1.0000 0.14160  0.52420  0.69870  Biso   1.000  C
  H384     1.0000 0.14660  0.56860  0.68790  Biso   1.000  H
  C462     1.0000 0.12880  0.53490  0.72400  Biso   1.000  C
  H385     1.0000 0.12510  0.58650  0.73030  Biso   1.000  H
  C463     1.0000 0.14024  0.46790  0.83150  Biso   1.000  C
  C464     1.0000 0.13160  0.44440  0.86037  Biso   1.000  C
  H386     1.0000 0.10800  0.44290  0.84890  Biso   1.000  H
  C465     1.0000 0.15810  0.42310  0.90636  Biso   1.000  C
  H387     1.0000 0.15240  0.40740  0.92570  Biso   1.000  H
  C466     1.0000 0.19330  0.42540  0.92349  Biso   1.000  C
  H388     1.0000 0.21110  0.41110  0.95430  Biso   1.000  H
  C467     1.0000 0.20199  0.44890  0.89460  Biso   1.000  C
  H389     1.0000 0.22550  0.45040  0.90610  Biso   1.000  H
  C468     1.0000 0.17544  0.47010  0.84870  Biso   1.000  C
  H390     1.0000 0.18120  0.48590  0.82940  Biso   1.000  H
  C469     1.0000 0.03000  0.50140  0.60800  Biso   1.000  C
  C470     1.0000 0.05020  0.46760  0.59620  Biso   1.000  C
  H391     1.0000 0.06010  0.50030  0.58600  Biso   1.000  H
  C471     1.0000 0.05570  0.38500  0.59950  Biso   1.000  C
  H392     1.0000 0.06920  0.36240  0.59160  Biso   1.000  H
  C472     1.0000 0.04090  0.33620  0.61480  Biso   1.000  C
  H393     1.0000 0.04450  0.28090  0.61700  Biso   1.000  H
  C473     1.0000 0.02060  0.37000  0.62660  Biso   1.000  C
  H394     1.0000 0.01070  0.33730  0.63680  Biso   1.000  H
  C474     1.0000 0.01520  0.45260  0.62330  Biso   1.000  C
  H395     1.0000 0.00160  0.47520  0.63120  Biso   1.000  H
  C475     1.0000 0.97250  0.59650  0.55320  Biso   1.000  C
  C476     1.0000 0.96010  0.54430  0.51620  Biso   1.000  C
  H396     1.0000 0.97590  0.51460  0.51480  Biso   1.000  H
  C477     1.0000 0.92390  0.53650  0.48130  Biso   1.000  C
  H397     1.0000 0.91560  0.50160  0.45650  Biso   1.000  H
  C478     1.0000 0.90020  0.58090  0.48340  Biso   1.000  C
  H398     1.0000 0.87600  0.57570  0.46010  Biso   1.000  H
  C479     1.0000 0.91270  0.63320  0.52050  Biso   1.000  C
  H399     1.0000 0.89680  0.66290  0.52190  Biso   1.000  H
  C480     1.0000 0.94880  0.64090  0.55530  Biso   1.000  C
  H400     1.0000 0.95720  0.67590  0.58010  Biso   1.000  H
  C481     1.0000 0.03750  0.64430  0.57510  Biso   1.000  C
  C482     1.0000 0.02210  0.64290  0.52790  Biso   1.000  C
  H401     1.0000 0.99940  0.62260  0.50660  Biso   1.000  H
  C483     1.0000 0.04070  0.67190  0.51240  Biso   1.000  C
  H402     1.0000 0.03040  0.67090  0.48080  Biso   1.000  H
  C484     1.0000 0.07470  0.70220  0.54420  Biso   1.000  C
  H403     1.0000 0.08710  0.72160  0.53380  Biso   1.000  H
  C485     1.0000 0.09010  0.70360  0.59140  Biso   1.000  C
  H404     1.0000 0.11280  0.72390  0.61260  Biso   1.000  H
  C486     1.0000 0.07150  0.67470  0.60690  Biso   1.000  C
  H405     1.0000 0.08180  0.67560  0.63850  Biso   1.000  H
  C487     1.0000 0.05990  0.93580  0.60510  Biso   1.000  C
  C488     1.0000 0.05740  0.98680  0.57280  Biso   1.000  C
  H406     1.0000 0.03670  0.01550  0.55200  Biso   1.000  H
  C489     1.0000 0.08590  0.99500  0.57170  Biso   1.000  C
  H407     1.0000 0.08430  0.02910  0.55000  Biso   1.000  H
  C490     1.0000 0.11690  0.95210  0.60280  Biso   1.000  C
  H408     1.0000 0.13600  0.95760  0.60200  Biso   1.000  H
  C491     1.0000 0.11940  0.90110  0.63510  Biso   1.000  C
  H409     1.0000 0.14010  0.87250  0.65600  Biso   1.000  H
  C492     1.0000 0.09090  0.89300  0.63630  Biso   1.000  C
  H410     1.0000 0.09250  0.85890  0.65790  Biso   1.000  H
  C493     1.0000 0.99357  0.86880  0.55290  Biso   1.000  C
  C494     1.0000 0.99850  0.84450  0.52040  Biso   1.000  C
  H411     1.0000 0.02000  0.85350  0.52590  Biso   1.000  H
  C495     1.0000 0.97120  0.80670  0.47950  Biso   1.000  C
  H412     1.0000 0.97440  0.79040  0.45780  Biso   1.000  H
  C496     1.0000 0.93900  0.79310  0.47120  Biso   1.000  C
  H413     1.0000 0.92070  0.76780  0.44390  Biso   1.000  H
  C497     1.0000 0.93410  0.81740  0.50370  Biso   1.000  C
  H414     1.0000 0.91250  0.80840  0.49820  Biso   1.000  H
  C498     1.0000 0.96140  0.85520  0.54460  Biso   1.000  C
  H415     1.0000 0.95810  0.87150  0.56630  Biso   1.000  H
  C499     1.0000 0.00459  0.01600  0.59970  Biso   1.000  C
  C500     1.0000 0.98450  0.05280  0.55620  Biso   1.000  C
  H416     1.0000 0.98210  0.02850  0.53130  Biso   1.000  H
  C501     1.0000 0.96790  0.12580  0.55010  Biso   1.000  C
  H417     1.0000 0.95450  0.15040  0.52100  Biso   1.000  H
  C502     1.0000 0.97150  0.16200  0.58740  Biso   1.000  C
  H418     1.0000 0.96050  0.21080  0.58320  Biso   1.000  H
  C503     1.0000 0.99160  0.12520  0.63080  Biso   1.000  C
  H419     1.0000 0.99400  0.14940  0.65580  Biso   1.000  H
  C504     1.0000 0.00820  0.05220  0.63700  Biso   1.000  C
  H420     1.0000 0.02160  0.02750  0.66610  Biso   1.000  H
  C505     1.0000 0.12930  0.07170  0.82610  Biso   1.000  C
  C506     1.0000 0.14790  0.14340  0.83770  Biso   1.000  C
  H421     1.0000 0.15990  0.15520  0.82560  Biso   1.000  H
  C507     1.0000 0.14850  0.19760  0.86750  Biso   1.000  C
  H422     1.0000 0.16090  0.24550  0.87530  Biso   1.000  H
  C508     1.0000 0.13050  0.17990  0.88560  Biso   1.000  C
  H423     1.0000 0.13090  0.21620  0.90550  Biso   1.000  H
  C509     1.0000 0.11190  0.10820  0.87400  Biso   1.000  C
  H424     1.0000 0.09980  0.09640  0.88610  Biso   1.000  H
  C510     1.0000 0.11130  0.05410  0.84420  Biso   1.000  C
  H425     1.0000 0.09890  0.00610  0.83640  Biso   1.000  H
  C511     1.0000 0.17331  0.96310  0.81996  Biso   1.000  C
  C512     1.0000 0.20264  0.00600  0.85558  Biso   1.000  C
  H426     1.0000 0.19970  0.05110  0.86810  Biso   1.000  H
  C513     1.0000 0.23643  0.98160  0.87250  Biso   1.000  C
  H427     1.0000 0.25610  0.01030  0.89630  Biso   1.000  H
  C514     1.0000 0.24089  0.91430  0.85380  Biso   1.000  C
  H428     1.0000 0.26350  0.89800  0.86510  Biso   1.000  H
  C515     1.0000 0.21156  0.87140  0.81816  Biso   1.000  C
  H429     1.0000 0.21450  0.82630  0.80560  Biso   1.000  H
  C516     1.0000 0.17777  0.89580  0.80125  Biso   1.000  C
  H430     1.0000 0.15810  0.86710  0.77740  Biso   1.000  H
  C517     1.0000 0.11971  0.05640  0.74079  Biso   1.000  C
  C518     1.0000 0.09118  0.10870  0.72080  Biso   1.000  C
  H431     1.0000 0.07810  0.11100  0.73210  Biso   1.000  H
  C519     1.0000 0.08220  0.15770  0.68390  Biso   1.000  C
  H432     1.0000 0.06310  0.19270  0.67050  Biso   1.000  H
  C520     1.0000 0.10170  0.15440  0.66690  Biso   1.000  C
  H433     1.0000 0.09560  0.18710  0.64220  Biso   1.000  H
  C521     1.0000 0.13020  0.10210  0.68693  Biso   1.000  C
  H434     1.0000 0.14320  0.09980  0.67560  Biso   1.000  H
  C522     1.0000 0.13920  0.05310  0.72385  Biso   1.000  C
  H435     1.0000 0.15830  0.01810  0.73720  Biso   1.000  H
  C523     1.0000 0.18382  0.83740  0.91640  Biso   1.000  C
  C524     1.0000 0.21786  0.86190  0.93451  Biso   1.000  C
  H436     1.0000 0.23190  0.82990  0.93050  Biso   1.000  H
  C525     1.0000 0.23099  0.93410  0.95860  Biso   1.000  C
  H437     1.0000 0.25380  0.95050  0.97070  Biso   1.000  H
  C526     1.0000 0.21008  0.98190  0.96458  Biso   1.000  C
  H438     1.0000 0.21890  0.03020  0.98070  Biso   1.000  H
  C527     1.0000 0.17604  0.95740  0.94648  Biso   1.000  C
  H439     1.0000 0.16200  0.98940  0.95050  Biso   1.000  H
  C528     1.0000 0.16291  0.88520  0.92239  Biso   1.000  C
  H440     1.0000 0.14010  0.86880  0.91030  Biso   1.000  H
  C529     1.0000 0.16903  0.68510  0.93488  Biso   1.000  C
  C530     1.0000 0.19117  0.70460  0.98196  Biso   1.000  C
  H441     1.0000 0.20660  0.74780  0.99230  Biso   1.000  H
  C531     1.0000 0.19021  0.65950  0.01350  Biso   1.000  C
  H442     1.0000 0.20500  0.67250  0.04500  Biso   1.000  H
  C532     1.0000 0.16711  0.59480  0.99800  Biso   1.000  C
  H443     1.0000 0.16650  0.56460  0.01920  Biso   1.000  H
  C533     1.0000 0.14496  0.57530  0.95090  Biso   1.000  C
  H444     1.0000 0.12950  0.53200  0.94060  Biso   1.000  H
  C534     1.0000 0.14593  0.62040  0.91940  Biso   1.000  C
  H445     1.0000 0.13110  0.60730  0.88790  Biso   1.000  H
  C535     1.0000 0.19952  0.69380  0.88892  Biso   1.000  C
  C536     1.0000 0.23056  0.66280  0.92860  Biso   1.000  C
  H446     1.0000 0.23450  0.66510  0.95710  Biso   1.000  H
  C537     1.0000 0.25568  0.62810  0.92560  Biso   1.000  C
  H447     1.0000 0.27650  0.60730  0.95220  Biso   1.000  H
  C538     1.0000 0.24977  0.62450  0.88300  Biso   1.000  C
  H448     1.0000 0.26660  0.60130  0.88100  Biso   1.000  H
  C539     1.0000 0.21873  0.65560  0.84330  Biso   1.000  C
  H449     1.0000 0.21480  0.65320  0.81480  Biso   1.000  H
  C540     1.0000 0.19360  0.69030  0.84627  Biso   1.000  C
  H450     1.0000 0.17280  0.71110  0.81970  Biso   1.000  H
  Cl21     1.0000 0.14701  0.73950  0.72059  Biso   1.000  Cl
  Cl22     1.0000 0.95720  0.54060  0.67028  Biso   1.000  Cl
  Cl23     1.0000 0.91994  0.76260  0.60592  Biso   1.000  Cl
  Cl24     1.0000 0.04589  0.96000  0.84180  Biso   1.000  Cl
  P26      1.0000 0.10430  0.48590  0.77136  Biso   1.000  P
  P27      1.0000 0.01797  0.60360  0.59922  Biso   1.000  P
  P28      1.0000 0.02498  0.92030  0.60646  Biso   1.000  P
  P29      1.0000 0.12908  0.99670  0.78930  Biso   1.000  P
  P30      1.0000 0.16790  0.74110  0.89164  Biso   1.000  P
  Au39     1.0000 0.00000  0.76747  0.75000  Biso   1.000  Au
  Ag37     1.0000 0.39750  0.24872  0.77084  Biso   1.000  Ag
  Ag38     1.0000 0.49147  0.12637  0.78586  Biso   1.000  Ag
  Ag39     1.0000 0.51777  0.27374  0.84042  Biso   1.000  Ag
  Ag40     1.0000 0.48237  0.40866  0.77684  Biso   1.000  Ag
  Ag41     1.0000 0.43586  0.34592  0.68394  Biso   1.000  Ag
  Ag42     1.0000 0.44002  0.17008  0.68691  Biso   1.000  Ag
  Au40     1.0000 0.41879  0.11233  0.74121  Biso   1.000  Au
  Au41     1.0000 0.46689  0.17456  0.83633  Biso   1.000  Au
  Au42     1.0000 0.46113  0.34809  0.83073  Biso   1.000  Au
  Au43     1.0000 0.40854  0.39194  0.73400  Biso   1.000  Au
  Au44     1.0000 0.38509  0.24843  0.67915  Biso   1.000  Au
  Au45     1.0000 0.44842  0.25908  0.76053  Biso   1.000  Au
  C541     1.0000 0.42480  0.90520  0.74301  Biso   1.000  C
  C542     1.0000 0.46061  0.92330  0.76930  Biso   1.000  C
  H451     1.0000 0.46830  0.97570  0.77910  Biso   1.000  H
  C543     1.0000 0.48489  0.86300  0.78080  Biso   1.000  C
  H452     1.0000 0.50880  0.87510  0.79830  Biso   1.000  H
  C544     1.0000 0.47340  0.78460  0.76600  Biso   1.000  C
  H453     1.0000 0.48960  0.74420  0.77370  Biso   1.000  H
  C545     1.0000 0.43760  0.76640  0.73980  Biso   1.000  C
  H454     1.0000 0.42980  0.71400  0.72990  Biso   1.000  H
  C546     1.0000 0.41327  0.82670  0.72830  Biso   1.000  C
  H455     1.0000 0.38930  0.81460  0.71070  Biso   1.000  H
  C547     1.0000 0.37869  0.96850  0.75990  Biso   1.000  C
  C548     1.0000 0.37327  0.89140  0.76920  Biso   1.000  C
  H456     1.0000 0.37830  0.84700  0.75850  Biso   1.000  H
  C549     1.0000 0.36040  0.88070  0.79460  Biso   1.000  C
  H457     1.0000 0.35680  0.82910  0.80080  Biso   1.000  H
  C550     1.0000 0.35300  0.94700  0.81060  Biso   1.000  C
  H458     1.0000 0.34430  0.93980  0.82760  Biso   1.000  H
  C551     1.0000 0.35840  0.02420  0.80130  Biso   1.000  C
  H459     1.0000 0.35340  0.06860  0.81210  Biso   1.000  H
  C552     1.0000 0.37120  0.03490  0.77600  Biso   1.000  C
  H460     1.0000 0.37490  0.08650  0.76970  Biso   1.000  H
  C553     1.0000 0.35976  0.96790  0.66850  Biso   1.000  C
  C554     1.0000 0.36840  0.94440  0.63963  Biso   1.000  C
  H461     1.0000 0.39200  0.94290  0.65110  Biso   1.000  H
  C555     1.0000 0.34190  0.92310  0.59364  Biso   1.000  C
  H462     1.0000 0.34760  0.90740  0.57430  Biso   1.000  H
  C556     1.0000 0.30670  0.92540  0.57651  Biso   1.000  C
  H463     1.0000 0.28890  0.91110  0.54570  Biso   1.000  H
  C557     1.0000 0.29801  0.94890  0.60540  Biso   1.000  C
  H464     1.0000 0.27450  0.95040  0.59390  Biso   1.000  H
  C558     1.0000 0.32456  0.97010  0.65130  Biso   1.000  C
  H465     1.0000 0.31880  0.98590  0.67060  Biso   1.000  H
  C559     1.0000 0.47000  0.00140  0.89200  Biso   1.000  C
  C560     1.0000 0.44980  0.96760  0.90380  Biso   1.000  C
  H466     1.0000 0.43990  0.00030  0.91400  Biso   1.000  H
  C561     1.0000 0.44430  0.88500  0.90050  Biso   1.000  C
  H467     1.0000 0.43080  0.86240  0.90840  Biso   1.000  H
  C562     1.0000 0.45910  0.83620  0.88520  Biso   1.000  C
  H468     1.0000 0.45550  0.78090  0.88300  Biso   1.000  H
  C563     1.0000 0.47940  0.87000  0.87340  Biso   1.000  C
  H469     1.0000 0.48930  0.83730  0.86320  Biso   1.000  H
  C564     1.0000 0.48480  0.95260  0.87670  Biso   1.000  C
  H470     1.0000 0.49840  0.97520  0.86880  Biso   1.000  H
  C565     1.0000 0.52750  0.09650  0.94680  Biso   1.000  C
  C566     1.0000 0.53990  0.04430  0.98380  Biso   1.000  C
  H471     1.0000 0.52410  0.01460  0.98520  Biso   1.000  H
  C567     1.0000 0.57610  0.03650  0.01870  Biso   1.000  C
  H472     1.0000 0.58440  0.00160  0.04350  Biso   1.000  H
  C568     1.0000 0.59980  0.08090  0.01660  Biso   1.000  C
  H473     1.0000 0.62400  0.07570  0.03990  Biso   1.000  H
  C569     1.0000 0.58730  0.13320  0.97950  Biso   1.000  C
  H474     1.0000 0.60320  0.16290  0.97810  Biso   1.000  H
  C570     1.0000 0.55120  0.14090  0.94470  Biso   1.000  C
  H475     1.0000 0.54280  0.17590  0.91990  Biso   1.000  H
  C571     1.0000 0.46250  0.14430  0.92490  Biso   1.000  C
  C572     1.0000 0.47790  0.14290  0.97210  Biso   1.000  C
  H476     1.0000 0.50060  0.12260  0.99340  Biso   1.000  H
  C573     1.0000 0.45930  0.17190  0.98760  Biso   1.000  C
  H477     1.0000 0.46960  0.17090  0.01920  Biso   1.000  H
  C574     1.0000 0.42530  0.20220  0.95580  Biso   1.000  C
  H478     1.0000 0.41290  0.22160  0.96620  Biso   1.000  H
  C575     1.0000 0.40990  0.20360  0.90860  Biso   1.000  C
  H479     1.0000 0.38720  0.22390  0.88740  Biso   1.000  H
  C576     1.0000 0.42850  0.17470  0.89310  Biso   1.000  C
  H480     1.0000 0.41820  0.17560  0.86150  Biso   1.000  H
  C577     1.0000 0.44010  0.43580  0.89490  Biso   1.000  C
  C578     1.0000 0.44260  0.48680  0.92720  Biso   1.000  C
  H481     1.0000 0.46330  0.51550  0.94800  Biso   1.000  H
  C579     1.0000 0.41410  0.49500  0.92830  Biso   1.000  C
  H482     1.0000 0.41570  0.52910  0.95000  Biso   1.000  H
  C580     1.0000 0.38310  0.45210  0.89720  Biso   1.000  C
  H483     1.0000 0.36400  0.45760  0.89800  Biso   1.000  H
  C581     1.0000 0.38060  0.40110  0.86490  Biso   1.000  C
  H484     1.0000 0.35990  0.37250  0.84400  Biso   1.000  H
  C582     1.0000 0.40910  0.39300  0.86370  Biso   1.000  C
  H485     1.0000 0.40750  0.35890  0.84210  Biso   1.000  H
  C583     1.0000 0.50643  0.36880  0.94710  Biso   1.000  C
  C584     1.0000 0.50150  0.34450  0.97960  Biso   1.000  C
  H486     1.0000 0.48000  0.35350  0.97410  Biso   1.000  H
  C585     1.0000 0.52880  0.30670  0.02050  Biso   1.000  C
  H487     1.0000 0.52560  0.29040  0.04220  Biso   1.000  H
  C586     1.0000 0.56100  0.29310  0.02880  Biso   1.000  C
  H488     1.0000 0.57930  0.26780  0.05610  Biso   1.000  H
  C587     1.0000 0.56590  0.31740  0.99630  Biso   1.000  C
  H489     1.0000 0.58750  0.30840  0.00180  Biso   1.000  H
  C588     1.0000 0.53860  0.35520  0.95540  Biso   1.000  C
  H490     1.0000 0.54190  0.37150  0.93370  Biso   1.000  H
  C589     1.0000 0.49541  0.51600  0.90030  Biso   1.000  C
  C590     1.0000 0.51550  0.55280  0.94380  Biso   1.000  C
  H491     1.0000 0.51790  0.52850  0.96870  Biso   1.000  H
  C591     1.0000 0.53210  0.62580  0.94990  Biso   1.000  C
  H492     1.0000 0.54550  0.65040  0.97900  Biso   1.000  H
  C592     1.0000 0.52850  0.66200  0.91260  Biso   1.000  C
  H493     1.0000 0.53950  0.71080  0.91680  Biso   1.000  H
  C593     1.0000 0.50840  0.62520  0.86920  Biso   1.000  C
  H494     1.0000 0.50600  0.64940  0.84420  Biso   1.000  H
  C594     1.0000 0.49180  0.55220  0.86300  Biso   1.000  C
  H495     1.0000 0.47840  0.52750  0.83390  Biso   1.000  H
  C595     1.0000 0.37070  0.57170  0.67390  Biso   1.000  C
  C596     1.0000 0.35210  0.64340  0.66230  Biso   1.000  C
  H496     1.0000 0.34010  0.65520  0.67440  Biso   1.000  H
  C597     1.0000 0.35150  0.69760  0.63250  Biso   1.000  C
  H497     1.0000 0.33910  0.74550  0.62470  Biso   1.000  H
  C598     1.0000 0.36950  0.67990  0.61440  Biso   1.000  C
  H498     1.0000 0.36910  0.71620  0.59450  Biso   1.000  H
  C599     1.0000 0.38810  0.60820  0.62600  Biso   1.000  C
  H499     1.0000 0.40020  0.59640  0.61390  Biso   1.000  H
  C600     1.0000 0.38870  0.55410  0.65580  Biso   1.000  C
  H500     1.0000 0.40110  0.50610  0.66360  Biso   1.000  H
  C601     1.0000 0.32669  0.46310  0.68004  Biso   1.000  C
  C602     1.0000 0.29736  0.50600  0.64442  Biso   1.000  C
  H501     1.0000 0.30030  0.55110  0.63190  Biso   1.000  H
  C603     1.0000 0.26357  0.48160  0.62750  Biso   1.000  C
  H502     1.0000 0.24390  0.51030  0.60370  Biso   1.000  H
  C604     1.0000 0.25911  0.41430  0.64620  Biso   1.000  C
  H503     1.0000 0.23650  0.39800  0.63490  Biso   1.000  H
  C605     1.0000 0.28844  0.37140  0.68184  Biso   1.000  C
  H504     1.0000 0.28550  0.32630  0.69440  Biso   1.000  H
  C606     1.0000 0.32223  0.39580  0.69875  Biso   1.000  C
  H505     1.0000 0.34190  0.36710  0.72260  Biso   1.000  H
  C607     1.0000 0.38029  0.55640  0.75921  Biso   1.000  C
  C608     1.0000 0.40882  0.60870  0.77920  Biso   1.000  C
  H506     1.0000 0.42190  0.61100  0.76790  Biso   1.000  H
  C609     1.0000 0.41780  0.65770  0.81610  Biso   1.000  C
  H507     1.0000 0.43690  0.69270  0.82950  Biso   1.000  H
  C610     1.0000 0.39830  0.65440  0.83310  Biso   1.000  C
  H508     1.0000 0.40440  0.68710  0.85780  Biso   1.000  H
  C611     1.0000 0.36980  0.60210  0.81307  Biso   1.000  C
  H509     1.0000 0.35680  0.59980  0.82440  Biso   1.000  H
  C612     1.0000 0.36080  0.55310  0.77615  Biso   1.000  C
  H510     1.0000 0.34170  0.51810  0.76280  Biso   1.000  H
  C613     1.0000 0.31618  0.33740  0.58360  Biso   1.000  C
  C614     1.0000 0.28214  0.36190  0.56549  Biso   1.000  C
  H511     1.0000 0.26810  0.32990  0.56950  Biso   1.000  H
  C615     1.0000 0.26901  0.43410  0.54140  Biso   1.000  C
  H512     1.0000 0.24620  0.45050  0.52930  Biso   1.000  H
  C616     1.0000 0.28992  0.48190  0.53542  Biso   1.000  C
  H513     1.0000 0.28110  0.53020  0.51930  Biso   1.000  H
  C617     1.0000 0.32396  0.45740  0.55352  Biso   1.000  C
  H514     1.0000 0.33800  0.48940  0.54950  Biso   1.000  H
  C618     1.0000 0.33709  0.38520  0.57761  Biso   1.000  C
  H515     1.0000 0.35990  0.36880  0.58970  Biso   1.000  H
  C619     1.0000 0.33097  0.18510  0.56512  Biso   1.000  C
  C620     1.0000 0.30883  0.20460  0.51804  Biso   1.000  C
  H516     1.0000 0.29340  0.24780  0.50770  Biso   1.000  H
  C621     1.0000 0.30979  0.15950  0.48650  Biso   1.000  C
  H517     1.0000 0.29500  0.17250  0.45500  Biso   1.000  H
  C622     1.0000 0.33289  0.09480  0.50200  Biso   1.000  C
  H518     1.0000 0.33350  0.06460  0.48080  Biso   1.000  H
  C623     1.0000 0.35504  0.07530  0.54910  Biso   1.000  C
  H519     1.0000 0.37050  0.03200  0.55940  Biso   1.000  H
  C624     1.0000 0.35407  0.12040  0.58060  Biso   1.000  C
  H520     1.0000 0.36890  0.10730  0.61210  Biso   1.000  H
  C625     1.0000 0.30048  0.19380  0.61108  Biso   1.000  C
  C626     1.0000 0.26944  0.16280  0.57140  Biso   1.000  C
  H521     1.0000 0.26550  0.16510  0.54290  Biso   1.000  H
  C627     1.0000 0.24432  0.12810  0.57440  Biso   1.000  C
  H522     1.0000 0.22350  0.10730  0.54780  Biso   1.000  H
  C628     1.0000 0.25023  0.12450  0.61700  Biso   1.000  C
  H523     1.0000 0.23340  0.10130  0.61900  Biso   1.000  H
  C629     1.0000 0.28127  0.15560  0.65670  Biso   1.000  C
  H524     1.0000 0.28520  0.15320  0.68520  Biso   1.000  H
  C630     1.0000 0.30640  0.19030  0.65373  Biso   1.000  C
  H525     1.0000 0.32720  0.21110  0.68030  Biso   1.000  H
  Cl25     1.0000 0.35299  0.23950  0.77941  Biso   1.000  Cl
  Cl26     1.0000 0.54280  0.04060  0.82972  Biso   1.000  Cl
  Cl27     1.0000 0.58006  0.26260  0.89408  Biso   1.000  Cl
  Cl28     1.0000 0.45411  0.46000  0.65820  Biso   1.000  Cl
  P31      1.0000 0.39570  0.98590  0.72864  Biso   1.000  P
  P32      1.0000 0.48203  0.10360  0.90078  Biso   1.000  P
  P33      1.0000 0.47502  0.42030  0.89354  Biso   1.000  P
  P34      1.0000 0.37092  0.49670  0.71070  Biso   1.000  P
  P35      1.0000 0.33210  0.24110  0.60836  Biso   1.000  P
  Ag43     1.0000 0.60250  0.24872  0.72916  Biso   1.000  Ag
  Ag44     1.0000 0.50853  0.12637  0.71414  Biso   1.000  Ag
  Ag45     1.0000 0.48223  0.27374  0.65958  Biso   1.000  Ag
  Ag46     1.0000 0.51763  0.40866  0.72316  Biso   1.000  Ag
  Ag47     1.0000 0.56414  0.34592  0.81606  Biso   1.000  Ag
  Ag48     1.0000 0.55998  0.17008  0.81309  Biso   1.000  Ag
  Au46     1.0000 0.58121  0.11233  0.75879  Biso   1.000  Au
  Au47     1.0000 0.53311  0.17456  0.66367  Biso   1.000  Au
  Au48     1.0000 0.53887  0.34809  0.66927  Biso   1.000  Au
  Au49     1.0000 0.59146  0.39194  0.76600  Biso   1.000  Au
  Au50     1.0000 0.61491  0.24843  0.82085  Biso   1.000  Au
  Au51     1.0000 0.55158  0.25908  0.73947  Biso   1.000  Au
  C631     1.0000 0.57520  0.90520  0.75699  Biso   1.000  C
  C632     1.0000 0.53939  0.92330  0.73070  Biso   1.000  C
  H526     1.0000 0.53170  0.97570  0.72090  Biso   1.000  H
  C633     1.0000 0.51511  0.86300  0.71920  Biso   1.000  C
  H527     1.0000 0.49120  0.87510  0.70170  Biso   1.000  H
  C634     1.0000 0.52660  0.78460  0.73400  Biso   1.000  C
  H528     1.0000 0.51040  0.74420  0.72630  Biso   1.000  H
  C635     1.0000 0.56240  0.76640  0.76020  Biso   1.000  C
  H529     1.0000 0.57020  0.71400  0.77010  Biso   1.000  H
  C636     1.0000 0.58673  0.82670  0.77170  Biso   1.000  C
  H530     1.0000 0.61070  0.81460  0.78930  Biso   1.000  H
  C637     1.0000 0.62131  0.96850  0.74010  Biso   1.000  C
  C638     1.0000 0.62673  0.89140  0.73080  Biso   1.000  C
  H531     1.0000 0.62170  0.84700  0.74150  Biso   1.000  H
  C639     1.0000 0.63960  0.88070  0.70540  Biso   1.000  C
  H532     1.0000 0.64320  0.82910  0.69920  Biso   1.000  H
  C640     1.0000 0.64700  0.94700  0.68940  Biso   1.000  C
  H533     1.0000 0.65570  0.93980  0.67240  Biso   1.000  H
  C641     1.0000 0.64160  0.02420  0.69870  Biso   1.000  C
  H534     1.0000 0.64660  0.06860  0.68790  Biso   1.000  H
  C642     1.0000 0.62880  0.03490  0.72400  Biso   1.000  C
  H535     1.0000 0.62510  0.08650  0.73030  Biso   1.000  H
  C643     1.0000 0.64024  0.96790  0.83150  Biso   1.000  C
  C644     1.0000 0.63160  0.94440  0.86037  Biso   1.000  C
  H536     1.0000 0.60800  0.94290  0.84890  Biso   1.000  H
  C645     1.0000 0.65810  0.92310  0.90636  Biso   1.000  C
  H537     1.0000 0.65240  0.90740  0.92570  Biso   1.000  H
  C646     1.0000 0.69330  0.92540  0.92349  Biso   1.000  C
  H538     1.0000 0.71110  0.91110  0.95430  Biso   1.000  H
  C647     1.0000 0.70199  0.94890  0.89460  Biso   1.000  C
  H539     1.0000 0.72550  0.95040  0.90610  Biso   1.000  H
  C648     1.0000 0.67544  0.97010  0.84870  Biso   1.000  C
  H540     1.0000 0.68120  0.98590  0.82940  Biso   1.000  H
  C649     1.0000 0.53000  0.00140  0.60800  Biso   1.000  C
  C650     1.0000 0.55020  0.96760  0.59620  Biso   1.000  C
  H541     1.0000 0.56010  0.00030  0.58600  Biso   1.000  H
  C651     1.0000 0.55570  0.88500  0.59950  Biso   1.000  C
  H542     1.0000 0.56920  0.86240  0.59160  Biso   1.000  H
  C652     1.0000 0.54090  0.83620  0.61480  Biso   1.000  C
  H543     1.0000 0.54450  0.78090  0.61700  Biso   1.000  H
  C653     1.0000 0.52060  0.87000  0.62660  Biso   1.000  C
  H544     1.0000 0.51070  0.83730  0.63680  Biso   1.000  H
  C654     1.0000 0.51520  0.95260  0.62330  Biso   1.000  C
  H545     1.0000 0.50160  0.97520  0.63120  Biso   1.000  H
  C655     1.0000 0.47250  0.09650  0.55320  Biso   1.000  C
  C656     1.0000 0.46010  0.04430  0.51620  Biso   1.000  C
  H546     1.0000 0.47590  0.01460  0.51480  Biso   1.000  H
  C657     1.0000 0.42390  0.03650  0.48130  Biso   1.000  C
  H547     1.0000 0.41560  0.00160  0.45650  Biso   1.000  H
  C658     1.0000 0.40020  0.08090  0.48340  Biso   1.000  C
  H548     1.0000 0.37600  0.07570  0.46010  Biso   1.000  H
  C659     1.0000 0.41270  0.13320  0.52050  Biso   1.000  C
  H549     1.0000 0.39680  0.16290  0.52190  Biso   1.000  H
  C660     1.0000 0.44880  0.14090  0.55530  Biso   1.000  C
  H550     1.0000 0.45720  0.17590  0.58010  Biso   1.000  H
  C661     1.0000 0.53750  0.14430  0.57510  Biso   1.000  C
  C662     1.0000 0.52210  0.14290  0.52790  Biso   1.000  C
  H551     1.0000 0.49940  0.12260  0.50660  Biso   1.000  H
  C663     1.0000 0.54070  0.17190  0.51240  Biso   1.000  C
  H552     1.0000 0.53040  0.17090  0.48080  Biso   1.000  H
  C664     1.0000 0.57470  0.20220  0.54420  Biso   1.000  C
  H553     1.0000 0.58710  0.22160  0.53380  Biso   1.000  H
  C665     1.0000 0.59010  0.20360  0.59140  Biso   1.000  C
  H554     1.0000 0.61280  0.22390  0.61260  Biso   1.000  H
  C666     1.0000 0.57150  0.17470  0.60690  Biso   1.000  C
  H555     1.0000 0.58180  0.17560  0.63850  Biso   1.000  H
  C667     1.0000 0.55990  0.43580  0.60510  Biso   1.000  C
  C668     1.0000 0.55740  0.48680  0.57280  Biso   1.000  C
  H556     1.0000 0.53670  0.51550  0.55200  Biso   1.000  H
  C669     1.0000 0.58590  0.49500  0.57170  Biso   1.000  C
  H557     1.0000 0.58430  0.52910  0.55000  Biso   1.000  H
  C670     1.0000 0.61690  0.45210  0.60280  Biso   1.000  C
  H558     1.0000 0.63600  0.45760  0.60200  Biso   1.000  H
  C671     1.0000 0.61940  0.40110  0.63510  Biso   1.000  C
  H559     1.0000 0.64010  0.37250  0.65600  Biso   1.000  H
  C672     1.0000 0.59090  0.39300  0.63630  Biso   1.000  C
  H560     1.0000 0.59250  0.35890  0.65790  Biso   1.000  H
  C673     1.0000 0.49357  0.36880  0.55290  Biso   1.000  C
  C674     1.0000 0.49850  0.34450  0.52040  Biso   1.000  C
  H561     1.0000 0.52000  0.35350  0.52590  Biso   1.000  H
  C675     1.0000 0.47120  0.30670  0.47950  Biso   1.000  C
  H562     1.0000 0.47440  0.29040  0.45780  Biso   1.000  H
  C676     1.0000 0.43900  0.29310  0.47120  Biso   1.000  C
  H563     1.0000 0.42070  0.26780  0.44390  Biso   1.000  H
  C677     1.0000 0.43410  0.31740  0.50370  Biso   1.000  C
  H564     1.0000 0.41250  0.30840  0.49820  Biso   1.000  H
  C678     1.0000 0.46140  0.35520  0.54460  Biso   1.000  C
  H565     1.0000 0.45810  0.37150  0.56630  Biso   1.000  H
  C679     1.0000 0.50459  0.51600  0.59970  Biso   1.000  C
  C680     1.0000 0.48450  0.55280  0.55620  Biso   1.000  C
  H566     1.0000 0.48210  0.52850  0.53130  Biso   1.000  H
  C681     1.0000 0.46790  0.62580  0.55010  Biso   1.000  C
  H567     1.0000 0.45450  0.65040  0.52100  Biso   1.000  H
  C682     1.0000 0.47150  0.66200  0.58740  Biso   1.000  C
  H568     1.0000 0.46050  0.71080  0.58320  Biso   1.000  H
  C683     1.0000 0.49160  0.62520  0.63080  Biso   1.000  C
  H569     1.0000 0.49400  0.64940  0.65580  Biso   1.000  H
  C684     1.0000 0.50820  0.55220  0.63700  Biso   1.000  C
  H570     1.0000 0.52160  0.52750  0.66610  Biso   1.000  H
  C685     1.0000 0.62930  0.57170  0.82610  Biso   1.000  C
  C686     1.0000 0.64790  0.64340  0.83770  Biso   1.000  C
  H571     1.0000 0.65990  0.65520  0.82560  Biso   1.000  H
  C687     1.0000 0.64850  0.69760  0.86750  Biso   1.000  C
  H572     1.0000 0.66090  0.74550  0.87530  Biso   1.000  H
  C688     1.0000 0.63050  0.67990  0.88560  Biso   1.000  C
  H573     1.0000 0.63090  0.71620  0.90550  Biso   1.000  H
  C689     1.0000 0.61190  0.60820  0.87400  Biso   1.000  C
  H574     1.0000 0.59980  0.59640  0.88610  Biso   1.000  H
  C690     1.0000 0.61130  0.55410  0.84420  Biso   1.000  C
  H575     1.0000 0.59890  0.50610  0.83640  Biso   1.000  H
  C691     1.0000 0.67331  0.46310  0.81996  Biso   1.000  C
  C692     1.0000 0.70264  0.50600  0.85558  Biso   1.000  C
  H576     1.0000 0.69970  0.55110  0.86810  Biso   1.000  H
  C693     1.0000 0.73643  0.48160  0.87250  Biso   1.000  C
  H577     1.0000 0.75610  0.51030  0.89630  Biso   1.000  H
  C694     1.0000 0.74089  0.41430  0.85380  Biso   1.000  C
  H578     1.0000 0.76350  0.39800  0.86510  Biso   1.000  H
  C695     1.0000 0.71156  0.37140  0.81816  Biso   1.000  C
  H579     1.0000 0.71450  0.32630  0.80560  Biso   1.000  H
  C696     1.0000 0.67777  0.39580  0.80125  Biso   1.000  C
  H580     1.0000 0.65810  0.36710  0.77740  Biso   1.000  H
  C697     1.0000 0.61971  0.55640  0.74079  Biso   1.000  C
  C698     1.0000 0.59118  0.60870  0.72080  Biso   1.000  C
  H581     1.0000 0.57810  0.61100  0.73210  Biso   1.000  H
  C699     1.0000 0.58220  0.65770  0.68390  Biso   1.000  C
  H582     1.0000 0.56310  0.69270  0.67050  Biso   1.000  H
  C700     1.0000 0.60170  0.65440  0.66690  Biso   1.000  C
  H583     1.0000 0.59560  0.68710  0.64220  Biso   1.000  H
  C701     1.0000 0.63020  0.60210  0.68693  Biso   1.000  C
  H584     1.0000 0.64320  0.59980  0.67560  Biso   1.000  H
  C702     1.0000 0.63920  0.55310  0.72385  Biso   1.000  C
  H585     1.0000 0.65830  0.51810  0.73720  Biso   1.000  H
  C703     1.0000 0.68382  0.33740  0.91640  Biso   1.000  C
  C704     1.0000 0.71786  0.36190  0.93451  Biso   1.000  C
  H586     1.0000 0.73190  0.32990  0.93050  Biso   1.000  H
  C705     1.0000 0.73099  0.43410  0.95860  Biso   1.000  C
  H587     1.0000 0.75380  0.45050  0.97070  Biso   1.000  H
  C706     1.0000 0.71008  0.48190  0.96458  Biso   1.000  C
  H588     1.0000 0.71890  0.53020  0.98070  Biso   1.000  H
  C707     1.0000 0.67604  0.45740  0.94648  Biso   1.000  C
  H589     1.0000 0.66200  0.48940  0.95050  Biso   1.000  H
  C708     1.0000 0.66291  0.38520  0.92239  Biso   1.000  C
  H590     1.0000 0.64010  0.36880  0.91030  Biso   1.000  H
  C709     1.0000 0.66903  0.18510  0.93488  Biso   1.000  C
  C710     1.0000 0.69117  0.20460  0.98196  Biso   1.000  C
  H591     1.0000 0.70660  0.24780  0.99230  Biso   1.000  H
  C711     1.0000 0.69021  0.15950  0.01350  Biso   1.000  C
  H592     1.0000 0.70500  0.17250  0.04500  Biso   1.000  H
  C712     1.0000 0.66711  0.09480  0.99800  Biso   1.000  C
  H593     1.0000 0.66650  0.06460  0.01920  Biso   1.000  H
  C713     1.0000 0.64496  0.07530  0.95090  Biso   1.000  C
  H594     1.0000 0.62950  0.03200  0.94060  Biso   1.000  H
  C714     1.0000 0.64593  0.12040  0.91940  Biso   1.000  C
  H595     1.0000 0.63110  0.10730  0.88790  Biso   1.000  H
  C715     1.0000 0.69952  0.19380  0.88892  Biso   1.000  C
  C716     1.0000 0.73056  0.16280  0.92860  Biso   1.000  C
  H596     1.0000 0.73450  0.16510  0.95710  Biso   1.000  H
  C717     1.0000 0.75568  0.12810  0.92560  Biso   1.000  C
  H597     1.0000 0.77650  0.10730  0.95220  Biso   1.000  H
  C718     1.0000 0.74977  0.12450  0.88300  Biso   1.000  C
  H598     1.0000 0.76660  0.10130  0.88100  Biso   1.000  H
  C719     1.0000 0.71873  0.15560  0.84330  Biso   1.000  C
  H599     1.0000 0.71480  0.15320  0.81480  Biso   1.000  H
  C720     1.0000 0.69360  0.19030  0.84627  Biso   1.000  C
  H600     1.0000 0.67280  0.21110  0.81970  Biso   1.000  H
  Cl29     1.0000 0.64701  0.23950  0.72059  Biso   1.000  Cl
  Cl30     1.0000 0.45720  0.04060  0.67028  Biso   1.000  Cl
  Cl31     1.0000 0.41994  0.26260  0.60592  Biso   1.000  Cl
  Cl32     1.0000 0.54589  0.46000  0.84180  Biso   1.000  Cl
  P36      1.0000 0.60430  0.98590  0.77136  Biso   1.000  P
  P37      1.0000 0.51797  0.10360  0.59922  Biso   1.000  P
  P38      1.0000 0.52498  0.42030  0.60646  Biso   1.000  P
  P39      1.0000 0.62908  0.49670  0.78930  Biso   1.000  P
  P40      1.0000 0.66790  0.24110  0.89164  Biso   1.000  P
  Au52     1.0000 0.50000  0.26747  0.75000  Biso   1.000  Au
