data_image0
_cell_length_a       23.675
_cell_length_b       29.299
_cell_length_c       34.539
_cell_angle_alpha    90
_cell_angle_beta     90
_cell_angle_gamma    90

_symmetry_space_group_name_H-M    "P 1"
_symmetry_int_tables_number       1

loop_
  _symmetry_equiv_pos_as_xyz
  'x, y, z'

loop_
  _atom_site_label
  _atom_site_occupancy
  _atom_site_fract_x
  _atom_site_fract_y
  _atom_site_fract_z
  _atom_site_thermal_displace_type
  _atom_site_B_iso_or_equiv
  _atom_site_type_symbol
  C1       1.0000 0.79310  0.33060  0.55670  Biso   1.000  C
  H1       1.0000 0.82490  0.32940  0.53990  Biso   1.000  H
  C2       1.0000 0.79440  0.36020  0.58800  Biso   1.000  C
  H2       1.0000 0.82640  0.37920  0.59200  Biso   1.000  H
  C3       1.0000 0.74920  0.36200  0.61370  Biso   1.000  C
  C4       1.0000 0.70470  0.33390  0.60520  Biso   1.000  C
  H3       1.0000 0.67270  0.33360  0.62180  Biso   1.000  H
  C5       1.0000 0.70550  0.30590  0.57310  Biso   1.000  C
  H4       1.0000 0.67350  0.28730  0.56780  Biso   1.000  H
  C6       1.0000 0.75080  0.39280  0.64770  Biso   1.000  C
  C7       1.0000 0.78720  0.42950  0.65110  Biso   1.000  C
  H5       1.0000 0.81280  0.43600  0.63070  Biso   1.000  H
  C8       1.0000 0.78690  0.45700  0.68380  Biso   1.000  C
  H6       1.0000 0.81300  0.48150  0.68550  Biso   1.000  H
  C9       1.0000 0.74960  0.44950  0.71380  Biso   1.000  C
  C10      1.0000 0.71360  0.41190  0.71140  Biso   1.000  C
  H7       1.0000 0.68910  0.40510  0.73240  Biso   1.000  H
  C11      1.0000 0.71330  0.38480  0.67920  Biso   1.000  C
  H8       1.0000 0.68740  0.36010  0.67780  Biso   1.000  H
  C12      1.0000 0.74940  0.47660  0.75050  Biso   1.000  C
  C13      1.0000 0.74810  0.45030  0.78720  Biso   1.000  C
  C14      1.0000 0.78980  0.41830  0.79270  Biso   1.000  C
  H9       1.0000 0.81870  0.41500  0.77380  Biso   1.000  H
  C15      1.0000 0.79040  0.39090  0.82520  Biso   1.000  C
  H10      1.0000 0.81960  0.36900  0.82840  Biso   1.000  H
  C16      1.0000 0.74890  0.39520  0.85330  Biso   1.000  C
  C17      1.0000 0.70710  0.42790  0.84730  Biso   1.000  C
  H11      1.0000 0.67840  0.43170  0.86630  Biso   1.000  H
  C18      1.0000 0.70590  0.45480  0.81490  Biso   1.000  C
  H12      1.0000 0.67650  0.47640  0.81140  Biso   1.000  H
  C19      1.0000 0.74800  0.36610  0.88820  Biso   1.000  C
  C20      1.0000 0.79870  0.35230  0.90610  Biso   1.000  C
  H13      1.0000 0.83390  0.36320  0.89690  Biso   1.000  H
  C21      1.0000 0.79690  0.32280  0.93710  Biso   1.000  C
  H14      1.0000 0.83160  0.31440  0.94910  Biso   1.000  H
  C22      1.0000 0.70110  0.31920  0.93490  Biso   1.000  C
  H15      1.0000 0.66650  0.30880  0.94560  Biso   1.000  H
  C23      1.0000 0.69880  0.34770  0.90330  Biso   1.000  C
  H16      1.0000 0.66340  0.35480  0.89180  Biso   1.000  H
  N1       1.0000 0.74960  0.30420  0.54931  Biso   1.000  N
  N2       1.0000 0.74910  0.30530  0.95133  Biso   1.000  N
  C24      1.0000 0.79310  0.83060  0.05670  Biso   1.000  C
  H17      1.0000 0.82490  0.82940  0.03990  Biso   1.000  H
  C25      1.0000 0.79440  0.86020  0.08800  Biso   1.000  C
  H18      1.0000 0.82640  0.87920  0.09200  Biso   1.000  H
  C26      1.0000 0.74920  0.86200  0.11370  Biso   1.000  C
  C27      1.0000 0.70470  0.83390  0.10520  Biso   1.000  C
  H19      1.0000 0.67270  0.83360  0.12180  Biso   1.000  H
  C28      1.0000 0.70550  0.80590  0.07310  Biso   1.000  C
  H20      1.0000 0.67350  0.78730  0.06780  Biso   1.000  H
  C29      1.0000 0.75080  0.89280  0.14770  Biso   1.000  C
  C30      1.0000 0.78720  0.92950  0.15110  Biso   1.000  C
  H21      1.0000 0.81280  0.93600  0.13070  Biso   1.000  H
  C31      1.0000 0.78690  0.95700  0.18380  Biso   1.000  C
  H22      1.0000 0.81300  0.98150  0.18550  Biso   1.000  H
  C32      1.0000 0.74960  0.94950  0.21380  Biso   1.000  C
  C33      1.0000 0.71360  0.91190  0.21140  Biso   1.000  C
  H23      1.0000 0.68910  0.90510  0.23240  Biso   1.000  H
  C34      1.0000 0.71330  0.88480  0.17920  Biso   1.000  C
  H24      1.0000 0.68740  0.86010  0.17780  Biso   1.000  H
  C35      1.0000 0.74940  0.97660  0.25050  Biso   1.000  C
  C36      1.0000 0.74810  0.95030  0.28720  Biso   1.000  C
  C37      1.0000 0.78980  0.91830  0.29270  Biso   1.000  C
  H25      1.0000 0.81870  0.91500  0.27380  Biso   1.000  H
  C38      1.0000 0.79040  0.89090  0.32520  Biso   1.000  C
  H26      1.0000 0.81960  0.86900  0.32840  Biso   1.000  H
  C39      1.0000 0.74890  0.89520  0.35330  Biso   1.000  C
  C40      1.0000 0.70710  0.92790  0.34730  Biso   1.000  C
  H27      1.0000 0.67840  0.93170  0.36630  Biso   1.000  H
  C41      1.0000 0.70590  0.95480  0.31490  Biso   1.000  C
  H28      1.0000 0.67650  0.97640  0.31140  Biso   1.000  H
  C42      1.0000 0.74800  0.86610  0.38820  Biso   1.000  C
  C43      1.0000 0.79870  0.85230  0.40610  Biso   1.000  C
  H29      1.0000 0.83390  0.86320  0.39690  Biso   1.000  H
  C44      1.0000 0.79690  0.82280  0.43710  Biso   1.000  C
  H30      1.0000 0.83160  0.81440  0.44910  Biso   1.000  H
  C45      1.0000 0.70110  0.81920  0.43490  Biso   1.000  C
  H31      1.0000 0.66650  0.80880  0.44560  Biso   1.000  H
  C46      1.0000 0.69880  0.84770  0.40330  Biso   1.000  C
  H32      1.0000 0.66340  0.85480  0.39180  Biso   1.000  H
  N3       1.0000 0.74960  0.80420  0.04931  Biso   1.000  N
  N4       1.0000 0.74910  0.80530  0.45133  Biso   1.000  N
  C47      1.0000 0.79310  0.66940  0.94330  Biso   1.000  C
  H33      1.0000 0.82490  0.67060  0.96010  Biso   1.000  H
  C48      1.0000 0.79440  0.63980  0.91200  Biso   1.000  C
  H34      1.0000 0.82640  0.62080  0.90800  Biso   1.000  H
  C49      1.0000 0.74920  0.63800  0.88630  Biso   1.000  C
  C50      1.0000 0.70470  0.66610  0.89480  Biso   1.000  C
  H35      1.0000 0.67270  0.66640  0.87820  Biso   1.000  H
  C51      1.0000 0.70550  0.69410  0.92690  Biso   1.000  C
  H36      1.0000 0.67350  0.71270  0.93220  Biso   1.000  H
  C52      1.0000 0.75080  0.60720  0.85230  Biso   1.000  C
  C53      1.0000 0.78720  0.57050  0.84890  Biso   1.000  C
  H37      1.0000 0.81280  0.56400  0.86930  Biso   1.000  H
  C54      1.0000 0.78690  0.54300  0.81620  Biso   1.000  C
  H38      1.0000 0.81300  0.51850  0.81450  Biso   1.000  H
  C55      1.0000 0.74960  0.55050  0.78620  Biso   1.000  C
  C56      1.0000 0.71360  0.58810  0.78860  Biso   1.000  C
  H39      1.0000 0.68910  0.59490  0.76760  Biso   1.000  H
  C57      1.0000 0.71330  0.61520  0.82080  Biso   1.000  C
  H40      1.0000 0.68740  0.63990  0.82220  Biso   1.000  H
  C58      1.0000 0.74940  0.52340  0.74950  Biso   1.000  C
  C59      1.0000 0.74810  0.54970  0.71280  Biso   1.000  C
  C60      1.0000 0.78980  0.58170  0.70730  Biso   1.000  C
  H41      1.0000 0.81870  0.58500  0.72620  Biso   1.000  H
  C61      1.0000 0.79040  0.60910  0.67480  Biso   1.000  C
  H42      1.0000 0.81960  0.63100  0.67160  Biso   1.000  H
  C62      1.0000 0.74890  0.60480  0.64670  Biso   1.000  C
  C63      1.0000 0.70710  0.57210  0.65270  Biso   1.000  C
  H43      1.0000 0.67840  0.56830  0.63370  Biso   1.000  H
  C64      1.0000 0.70590  0.54520  0.68510  Biso   1.000  C
  H44      1.0000 0.67650  0.52360  0.68860  Biso   1.000  H
  C65      1.0000 0.74800  0.63390  0.61180  Biso   1.000  C
  C66      1.0000 0.79870  0.64770  0.59390  Biso   1.000  C
  H45      1.0000 0.83390  0.63680  0.60310  Biso   1.000  H
  C67      1.0000 0.79690  0.67720  0.56290  Biso   1.000  C
  H46      1.0000 0.83160  0.68560  0.55090  Biso   1.000  H
  C68      1.0000 0.70110  0.68080  0.56510  Biso   1.000  C
  H47      1.0000 0.66650  0.69120  0.55440  Biso   1.000  H
  C69      1.0000 0.69880  0.65230  0.59670  Biso   1.000  C
  H48      1.0000 0.66340  0.64520  0.60820  Biso   1.000  H
  N5       1.0000 0.74960  0.69580  0.95069  Biso   1.000  N
  N6       1.0000 0.74910  0.69470  0.54867  Biso   1.000  N
  C70      1.0000 0.79310  0.16940  0.44330  Biso   1.000  C
  H49      1.0000 0.82490  0.17060  0.46010  Biso   1.000  H
  C71      1.0000 0.79440  0.13980  0.41200  Biso   1.000  C
  H50      1.0000 0.82640  0.12080  0.40800  Biso   1.000  H
  C72      1.0000 0.74920  0.13800  0.38630  Biso   1.000  C
  C73      1.0000 0.70470  0.16610  0.39480  Biso   1.000  C
  H51      1.0000 0.67270  0.16640  0.37820  Biso   1.000  H
  C74      1.0000 0.70550  0.19410  0.42690  Biso   1.000  C
  H52      1.0000 0.67350  0.21270  0.43220  Biso   1.000  H
  C75      1.0000 0.75080  0.10720  0.35230  Biso   1.000  C
  C76      1.0000 0.78720  0.07050  0.34890  Biso   1.000  C
  H53      1.0000 0.81280  0.06400  0.36930  Biso   1.000  H
  C77      1.0000 0.78690  0.04300  0.31620  Biso   1.000  C
  H54      1.0000 0.81300  0.01850  0.31450  Biso   1.000  H
  C78      1.0000 0.74960  0.05050  0.28620  Biso   1.000  C
  C79      1.0000 0.71360  0.08810  0.28860  Biso   1.000  C
  H55      1.0000 0.68910  0.09490  0.26760  Biso   1.000  H
  C80      1.0000 0.71330  0.11520  0.32080  Biso   1.000  C
  H56      1.0000 0.68740  0.13990  0.32220  Biso   1.000  H
  C81      1.0000 0.74940  0.02340  0.24950  Biso   1.000  C
  C82      1.0000 0.74810  0.04970  0.21280  Biso   1.000  C
  C83      1.0000 0.78980  0.08170  0.20730  Biso   1.000  C
  H57      1.0000 0.81870  0.08500  0.22620  Biso   1.000  H
  C84      1.0000 0.79040  0.10910  0.17480  Biso   1.000  C
  H58      1.0000 0.81960  0.13100  0.17160  Biso   1.000  H
  C85      1.0000 0.74890  0.10480  0.14670  Biso   1.000  C
  C86      1.0000 0.70710  0.07210  0.15270  Biso   1.000  C
  H59      1.0000 0.67840  0.06830  0.13370  Biso   1.000  H
  C87      1.0000 0.70590  0.04520  0.18510  Biso   1.000  C
  H60      1.0000 0.67650  0.02360  0.18860  Biso   1.000  H
  C88      1.0000 0.74800  0.13390  0.11180  Biso   1.000  C
  C89      1.0000 0.79870  0.14770  0.09390  Biso   1.000  C
  H61      1.0000 0.83390  0.13680  0.10310  Biso   1.000  H
  C90      1.0000 0.79690  0.17720  0.06290  Biso   1.000  C
  H62      1.0000 0.83160  0.18560  0.05090  Biso   1.000  H
  C91      1.0000 0.70110  0.18080  0.06510  Biso   1.000  C
  H63      1.0000 0.66650  0.19120  0.05440  Biso   1.000  H
  C92      1.0000 0.69880  0.15230  0.09670  Biso   1.000  C
  H64      1.0000 0.66340  0.14520  0.10820  Biso   1.000  H
  N7       1.0000 0.74960  0.19580  0.45069  Biso   1.000  N
  N8       1.0000 0.74910  0.19470  0.04867  Biso   1.000  N
  C93      1.0000 0.70690  0.33060  0.44330  Biso   1.000  C
  H65      1.0000 0.67510  0.32940  0.46010  Biso   1.000  H
  C94      1.0000 0.70560  0.36020  0.41200  Biso   1.000  C
  H66      1.0000 0.67360  0.37920  0.40800  Biso   1.000  H
  C95      1.0000 0.75080  0.36200  0.38630  Biso   1.000  C
  C96      1.0000 0.79530  0.33390  0.39480  Biso   1.000  C
  H67      1.0000 0.82730  0.33360  0.37820  Biso   1.000  H
  C97      1.0000 0.79450  0.30590  0.42690  Biso   1.000  C
  H68      1.0000 0.82650  0.28730  0.43220  Biso   1.000  H
  C98      1.0000 0.74920  0.39280  0.35230  Biso   1.000  C
  C99      1.0000 0.71280  0.42950  0.34890  Biso   1.000  C
  H69      1.0000 0.68720  0.43600  0.36930  Biso   1.000  H
  C100     1.0000 0.71310  0.45700  0.31620  Biso   1.000  C
  H70      1.0000 0.68700  0.48150  0.31450  Biso   1.000  H
  C101     1.0000 0.75040  0.44950  0.28620  Biso   1.000  C
  C102     1.0000 0.78640  0.41190  0.28860  Biso   1.000  C
  H71      1.0000 0.81090  0.40510  0.26760  Biso   1.000  H
  C103     1.0000 0.78670  0.38480  0.32080  Biso   1.000  C
  H72      1.0000 0.81260  0.36010  0.32220  Biso   1.000  H
  C104     1.0000 0.75060  0.47660  0.24950  Biso   1.000  C
  C105     1.0000 0.75190  0.45030  0.21280  Biso   1.000  C
  C106     1.0000 0.71020  0.41830  0.20730  Biso   1.000  C
  H73      1.0000 0.68130  0.41500  0.22620  Biso   1.000  H
  C107     1.0000 0.70960  0.39090  0.17480  Biso   1.000  C
  H74      1.0000 0.68040  0.36900  0.17160  Biso   1.000  H
  C108     1.0000 0.75110  0.39520  0.14670  Biso   1.000  C
  C109     1.0000 0.79290  0.42790  0.15270  Biso   1.000  C
  H75      1.0000 0.82160  0.43170  0.13370  Biso   1.000  H
  C110     1.0000 0.79410  0.45480  0.18510  Biso   1.000  C
  H76      1.0000 0.82350  0.47640  0.18860  Biso   1.000  H
  C111     1.0000 0.75200  0.36610  0.11180  Biso   1.000  C
  C112     1.0000 0.70130  0.35230  0.09390  Biso   1.000  C
  H77      1.0000 0.66610  0.36320  0.10310  Biso   1.000  H
  C113     1.0000 0.70310  0.32280  0.06290  Biso   1.000  C
  H78      1.0000 0.66840  0.31440  0.05090  Biso   1.000  H
  C114     1.0000 0.79890  0.31920  0.06510  Biso   1.000  C
  H79      1.0000 0.83350  0.30880  0.05440  Biso   1.000  H
  C115     1.0000 0.80120  0.34770  0.09670  Biso   1.000  C
  H80      1.0000 0.83660  0.35480  0.10820  Biso   1.000  H
  N9       1.0000 0.75040  0.30420  0.45069  Biso   1.000  N
  N10      1.0000 0.75090  0.30530  0.04867  Biso   1.000  N
  C116     1.0000 0.70690  0.83060  0.94330  Biso   1.000  C
  H81      1.0000 0.67510  0.82940  0.96010  Biso   1.000  H
  C117     1.0000 0.70560  0.86020  0.91200  Biso   1.000  C
  H82      1.0000 0.67360  0.87920  0.90800  Biso   1.000  H
  C118     1.0000 0.75080  0.86200  0.88630  Biso   1.000  C
  C119     1.0000 0.79530  0.83390  0.89480  Biso   1.000  C
  H83      1.0000 0.82730  0.83360  0.87820  Biso   1.000  H
  C120     1.0000 0.79450  0.80590  0.92690  Biso   1.000  C
  H84      1.0000 0.82650  0.78730  0.93220  Biso   1.000  H
  C121     1.0000 0.74920  0.89280  0.85230  Biso   1.000  C
  C122     1.0000 0.71280  0.92950  0.84890  Biso   1.000  C
  H85      1.0000 0.68720  0.93600  0.86930  Biso   1.000  H
  C123     1.0000 0.71310  0.95700  0.81620  Biso   1.000  C
  H86      1.0000 0.68700  0.98150  0.81450  Biso   1.000  H
  C124     1.0000 0.75040  0.94950  0.78620  Biso   1.000  C
  C125     1.0000 0.78640  0.91190  0.78860  Biso   1.000  C
  H87      1.0000 0.81090  0.90510  0.76760  Biso   1.000  H
  C126     1.0000 0.78670  0.88480  0.82080  Biso   1.000  C
  H88      1.0000 0.81260  0.86010  0.82220  Biso   1.000  H
  C127     1.0000 0.75060  0.97660  0.74950  Biso   1.000  C
  C128     1.0000 0.75190  0.95030  0.71280  Biso   1.000  C
  C129     1.0000 0.71020  0.91830  0.70730  Biso   1.000  C
  H89      1.0000 0.68130  0.91500  0.72620  Biso   1.000  H
  C130     1.0000 0.70960  0.89090  0.67480  Biso   1.000  C
  H90      1.0000 0.68040  0.86900  0.67160  Biso   1.000  H
  C131     1.0000 0.75110  0.89520  0.64670  Biso   1.000  C
  C132     1.0000 0.79290  0.92790  0.65270  Biso   1.000  C
  H91      1.0000 0.82160  0.93170  0.63370  Biso   1.000  H
  C133     1.0000 0.79410  0.95480  0.68510  Biso   1.000  C
  H92      1.0000 0.82350  0.97640  0.68860  Biso   1.000  H
  C134     1.0000 0.75200  0.86610  0.61180  Biso   1.000  C
  C135     1.0000 0.70130  0.85230  0.59390  Biso   1.000  C
  H93      1.0000 0.66610  0.86320  0.60310  Biso   1.000  H
  C136     1.0000 0.70310  0.82280  0.56290  Biso   1.000  C
  H94      1.0000 0.66840  0.81440  0.55090  Biso   1.000  H
  C137     1.0000 0.79890  0.81920  0.56510  Biso   1.000  C
  H95      1.0000 0.83350  0.80880  0.55440  Biso   1.000  H
  C138     1.0000 0.80120  0.84770  0.59670  Biso   1.000  C
  H96      1.0000 0.83660  0.85480  0.60820  Biso   1.000  H
  N11      1.0000 0.75040  0.80420  0.95069  Biso   1.000  N
  N12      1.0000 0.75090  0.80530  0.54867  Biso   1.000  N
  C139     1.0000 0.70690  0.66940  0.05670  Biso   1.000  C
  H97      1.0000 0.67510  0.67060  0.03990  Biso   1.000  H
  C140     1.0000 0.70560  0.63980  0.08800  Biso   1.000  C
  H98      1.0000 0.67360  0.62080  0.09200  Biso   1.000  H
  C141     1.0000 0.75080  0.63800  0.11370  Biso   1.000  C
  C142     1.0000 0.79530  0.66610  0.10520  Biso   1.000  C
  H99      1.0000 0.82730  0.66640  0.12180  Biso   1.000  H
  C143     1.0000 0.79450  0.69410  0.07310  Biso   1.000  C
  H100     1.0000 0.82650  0.71270  0.06780  Biso   1.000  H
  C144     1.0000 0.74920  0.60720  0.14770  Biso   1.000  C
  C145     1.0000 0.71280  0.57050  0.15110  Biso   1.000  C
  H101     1.0000 0.68720  0.56400  0.13070  Biso   1.000  H
  C146     1.0000 0.71310  0.54300  0.18380  Biso   1.000  C
  H102     1.0000 0.68700  0.51850  0.18550  Biso   1.000  H
  C147     1.0000 0.75040  0.55050  0.21380  Biso   1.000  C
  C148     1.0000 0.78640  0.58810  0.21140  Biso   1.000  C
  H103     1.0000 0.81090  0.59490  0.23240  Biso   1.000  H
  C149     1.0000 0.78670  0.61520  0.17920  Biso   1.000  C
  H104     1.0000 0.81260  0.63990  0.17780  Biso   1.000  H
  C150     1.0000 0.75060  0.52340  0.25050  Biso   1.000  C
  C151     1.0000 0.75190  0.54970  0.28720  Biso   1.000  C
  C152     1.0000 0.71020  0.58170  0.29270  Biso   1.000  C
  H105     1.0000 0.68130  0.58500  0.27380  Biso   1.000  H
  C153     1.0000 0.70960  0.60910  0.32520  Biso   1.000  C
  H106     1.0000 0.68040  0.63100  0.32840  Biso   1.000  H
  C154     1.0000 0.75110  0.60480  0.35330  Biso   1.000  C
  C155     1.0000 0.79290  0.57210  0.34730  Biso   1.000  C
  H107     1.0000 0.82160  0.56830  0.36630  Biso   1.000  H
  C156     1.0000 0.79410  0.54520  0.31490  Biso   1.000  C
  H108     1.0000 0.82350  0.52360  0.31140  Biso   1.000  H
  C157     1.0000 0.75200  0.63390  0.38820  Biso   1.000  C
  C158     1.0000 0.70130  0.64770  0.40610  Biso   1.000  C
  H109     1.0000 0.66610  0.63680  0.39690  Biso   1.000  H
  C159     1.0000 0.70310  0.67720  0.43710  Biso   1.000  C
  H110     1.0000 0.66840  0.68560  0.44910  Biso   1.000  H
  C160     1.0000 0.79890  0.68080  0.43490  Biso   1.000  C
  H111     1.0000 0.83350  0.69120  0.44560  Biso   1.000  H
  C161     1.0000 0.80120  0.65230  0.40330  Biso   1.000  C
  H112     1.0000 0.83660  0.64520  0.39180  Biso   1.000  H
  N13      1.0000 0.75040  0.69580  0.04931  Biso   1.000  N
  N14      1.0000 0.75090  0.69470  0.45133  Biso   1.000  N
  C162     1.0000 0.70690  0.16940  0.55670  Biso   1.000  C
  H113     1.0000 0.67510  0.17060  0.53990  Biso   1.000  H
  C163     1.0000 0.70560  0.13980  0.58800  Biso   1.000  C
  H114     1.0000 0.67360  0.12080  0.59200  Biso   1.000  H
  C164     1.0000 0.75080  0.13800  0.61370  Biso   1.000  C
  C165     1.0000 0.79530  0.16610  0.60520  Biso   1.000  C
  H115     1.0000 0.82730  0.16640  0.62180  Biso   1.000  H
  C166     1.0000 0.79450  0.19410  0.57310  Biso   1.000  C
  H116     1.0000 0.82650  0.21270  0.56780  Biso   1.000  H
  C167     1.0000 0.74920  0.10720  0.64770  Biso   1.000  C
  C168     1.0000 0.71280  0.07050  0.65110  Biso   1.000  C
  H117     1.0000 0.68720  0.06400  0.63070  Biso   1.000  H
  C169     1.0000 0.71310  0.04300  0.68380  Biso   1.000  C
  H118     1.0000 0.68700  0.01850  0.68550  Biso   1.000  H
  C170     1.0000 0.75040  0.05050  0.71380  Biso   1.000  C
  C171     1.0000 0.78640  0.08810  0.71140  Biso   1.000  C
  H119     1.0000 0.81090  0.09490  0.73240  Biso   1.000  H
  C172     1.0000 0.78670  0.11520  0.67920  Biso   1.000  C
  H120     1.0000 0.81260  0.13990  0.67780  Biso   1.000  H
  C173     1.0000 0.75060  0.02340  0.75050  Biso   1.000  C
  C174     1.0000 0.75190  0.04970  0.78720  Biso   1.000  C
  C175     1.0000 0.71020  0.08170  0.79270  Biso   1.000  C
  H121     1.0000 0.68130  0.08500  0.77380  Biso   1.000  H
  C176     1.0000 0.70960  0.10910  0.82520  Biso   1.000  C
  H122     1.0000 0.68040  0.13100  0.82840  Biso   1.000  H
  C177     1.0000 0.75110  0.10480  0.85330  Biso   1.000  C
  C178     1.0000 0.79290  0.07210  0.84730  Biso   1.000  C
  H123     1.0000 0.82160  0.06830  0.86630  Biso   1.000  H
  C179     1.0000 0.79410  0.04520  0.81490  Biso   1.000  C
  H124     1.0000 0.82350  0.02360  0.81140  Biso   1.000  H
  C180     1.0000 0.75200  0.13390  0.88820  Biso   1.000  C
  C181     1.0000 0.70130  0.14770  0.90610  Biso   1.000  C
  H125     1.0000 0.66610  0.13680  0.89690  Biso   1.000  H
  C182     1.0000 0.70310  0.17720  0.93710  Biso   1.000  C
  H126     1.0000 0.66840  0.18560  0.94910  Biso   1.000  H
  C183     1.0000 0.79890  0.18080  0.93490  Biso   1.000  C
  H127     1.0000 0.83350  0.19120  0.94560  Biso   1.000  H
  C184     1.0000 0.80120  0.15230  0.90330  Biso   1.000  C
  H128     1.0000 0.83660  0.14520  0.89180  Biso   1.000  H
  N15      1.0000 0.75040  0.19580  0.54931  Biso   1.000  N
  N16      1.0000 0.75090  0.19470  0.95133  Biso   1.000  N
  Cl1      1.0000 0.64680  0.25000  0.50000  Biso   1.000  Cl
  Cl2      1.0000 0.64680  0.75000  0.00000  Biso   1.000  Cl
  Cl3      1.0000 0.85320  0.25000  0.50000  Biso   1.000  Cl
  Cl4      1.0000 0.85320  0.75000  0.00000  Biso   1.000  Cl
  Cu1      1.0000 0.75000  0.25000  0.50000  Biso   1.000  Cu
  Cu2      1.0000 0.75000  0.75000  0.00000  Biso   1.000  Cu
  C185     1.0000 0.20690  0.66940  0.44330  Biso   1.000  C
  H129     1.0000 0.17510  0.67060  0.46010  Biso   1.000  H
  C186     1.0000 0.20560  0.63980  0.41200  Biso   1.000  C
  H130     1.0000 0.17360  0.62080  0.40800  Biso   1.000  H
  C187     1.0000 0.25080  0.63800  0.38630  Biso   1.000  C
  C188     1.0000 0.29530  0.66610  0.39480  Biso   1.000  C
  H131     1.0000 0.32730  0.66640  0.37820  Biso   1.000  H
  C189     1.0000 0.29450  0.69410  0.42690  Biso   1.000  C
  H132     1.0000 0.32650  0.71270  0.43220  Biso   1.000  H
  C190     1.0000 0.24920  0.60720  0.35230  Biso   1.000  C
  C191     1.0000 0.21280  0.57050  0.34890  Biso   1.000  C
  H133     1.0000 0.18720  0.56400  0.36930  Biso   1.000  H
  C192     1.0000 0.21310  0.54300  0.31620  Biso   1.000  C
  H134     1.0000 0.18700  0.51850  0.31450  Biso   1.000  H
  C193     1.0000 0.25040  0.55050  0.28620  Biso   1.000  C
  C194     1.0000 0.28640  0.58810  0.28860  Biso   1.000  C
  H135     1.0000 0.31090  0.59490  0.26760  Biso   1.000  H
  C195     1.0000 0.28670  0.61520  0.32080  Biso   1.000  C
  H136     1.0000 0.31260  0.63990  0.32220  Biso   1.000  H
  C196     1.0000 0.25060  0.52340  0.24950  Biso   1.000  C
  C197     1.0000 0.25190  0.54970  0.21280  Biso   1.000  C
  C198     1.0000 0.21020  0.58170  0.20730  Biso   1.000  C
  H137     1.0000 0.18130  0.58500  0.22620  Biso   1.000  H
  C199     1.0000 0.20960  0.60910  0.17480  Biso   1.000  C
  H138     1.0000 0.18040  0.63100  0.17160  Biso   1.000  H
  C200     1.0000 0.25110  0.60480  0.14670  Biso   1.000  C
  C201     1.0000 0.29290  0.57210  0.15270  Biso   1.000  C
  H139     1.0000 0.32160  0.56830  0.13370  Biso   1.000  H
  C202     1.0000 0.29410  0.54520  0.18510  Biso   1.000  C
  H140     1.0000 0.32350  0.52360  0.18860  Biso   1.000  H
  C203     1.0000 0.25200  0.63390  0.11180  Biso   1.000  C
  C204     1.0000 0.20130  0.64770  0.09390  Biso   1.000  C
  H141     1.0000 0.16610  0.63680  0.10310  Biso   1.000  H
  C205     1.0000 0.20310  0.67720  0.06290  Biso   1.000  C
  H142     1.0000 0.16840  0.68560  0.05090  Biso   1.000  H
  C206     1.0000 0.29890  0.68080  0.06510  Biso   1.000  C
  H143     1.0000 0.33350  0.69120  0.05440  Biso   1.000  H
  C207     1.0000 0.30120  0.65230  0.09670  Biso   1.000  C
  H144     1.0000 0.33660  0.64520  0.10820  Biso   1.000  H
  N17      1.0000 0.25040  0.69580  0.45069  Biso   1.000  N
  N18      1.0000 0.25090  0.69470  0.04867  Biso   1.000  N
  C208     1.0000 0.20690  0.16940  0.94330  Biso   1.000  C
  H145     1.0000 0.17510  0.17060  0.96010  Biso   1.000  H
  C209     1.0000 0.20560  0.13980  0.91200  Biso   1.000  C
  H146     1.0000 0.17360  0.12080  0.90800  Biso   1.000  H
  C210     1.0000 0.25080  0.13800  0.88630  Biso   1.000  C
  C211     1.0000 0.29530  0.16610  0.89480  Biso   1.000  C
  H147     1.0000 0.32730  0.16640  0.87820  Biso   1.000  H
  C212     1.0000 0.29450  0.19410  0.92690  Biso   1.000  C
  H148     1.0000 0.32650  0.21270  0.93220  Biso   1.000  H
  C213     1.0000 0.24920  0.10720  0.85230  Biso   1.000  C
  C214     1.0000 0.21280  0.07050  0.84890  Biso   1.000  C
  H149     1.0000 0.18720  0.06400  0.86930  Biso   1.000  H
  C215     1.0000 0.21310  0.04300  0.81620  Biso   1.000  C
  H150     1.0000 0.18700  0.01850  0.81450  Biso   1.000  H
  C216     1.0000 0.25040  0.05050  0.78620  Biso   1.000  C
  C217     1.0000 0.28640  0.08810  0.78860  Biso   1.000  C
  H151     1.0000 0.31090  0.09490  0.76760  Biso   1.000  H
  C218     1.0000 0.28670  0.11520  0.82080  Biso   1.000  C
  H152     1.0000 0.31260  0.13990  0.82220  Biso   1.000  H
  C219     1.0000 0.25060  0.02340  0.74950  Biso   1.000  C
  C220     1.0000 0.25190  0.04970  0.71280  Biso   1.000  C
  C221     1.0000 0.21020  0.08170  0.70730  Biso   1.000  C
  H153     1.0000 0.18130  0.08500  0.72620  Biso   1.000  H
  C222     1.0000 0.20960  0.10910  0.67480  Biso   1.000  C
  H154     1.0000 0.18040  0.13100  0.67160  Biso   1.000  H
  C223     1.0000 0.25110  0.10480  0.64670  Biso   1.000  C
  C224     1.0000 0.29290  0.07210  0.65270  Biso   1.000  C
  H155     1.0000 0.32160  0.06830  0.63370  Biso   1.000  H
  C225     1.0000 0.29410  0.04520  0.68510  Biso   1.000  C
  H156     1.0000 0.32350  0.02360  0.68860  Biso   1.000  H
  C226     1.0000 0.25200  0.13390  0.61180  Biso   1.000  C
  C227     1.0000 0.20130  0.14770  0.59390  Biso   1.000  C
  H157     1.0000 0.16610  0.13680  0.60310  Biso   1.000  H
  C228     1.0000 0.20310  0.17720  0.56290  Biso   1.000  C
  H158     1.0000 0.16840  0.18560  0.55090  Biso   1.000  H
  C229     1.0000 0.29890  0.18080  0.56510  Biso   1.000  C
  H159     1.0000 0.33350  0.19120  0.55440  Biso   1.000  H
  C230     1.0000 0.30120  0.15230  0.59670  Biso   1.000  C
  H160     1.0000 0.33660  0.14520  0.60820  Biso   1.000  H
  N19      1.0000 0.25040  0.19580  0.95069  Biso   1.000  N
  N20      1.0000 0.25090  0.19470  0.54867  Biso   1.000  N
  C231     1.0000 0.20690  0.33060  0.05670  Biso   1.000  C
  H161     1.0000 0.17510  0.32940  0.03990  Biso   1.000  H
  C232     1.0000 0.20560  0.36020  0.08800  Biso   1.000  C
  H162     1.0000 0.17360  0.37920  0.09200  Biso   1.000  H
  C233     1.0000 0.25080  0.36200  0.11370  Biso   1.000  C
  C234     1.0000 0.29530  0.33390  0.10520  Biso   1.000  C
  H163     1.0000 0.32730  0.33360  0.12180  Biso   1.000  H
  C235     1.0000 0.29450  0.30590  0.07310  Biso   1.000  C
  H164     1.0000 0.32650  0.28730  0.06780  Biso   1.000  H
  C236     1.0000 0.24920  0.39280  0.14770  Biso   1.000  C
  C237     1.0000 0.21280  0.42950  0.15110  Biso   1.000  C
  H165     1.0000 0.18720  0.43600  0.13070  Biso   1.000  H
  C238     1.0000 0.21310  0.45700  0.18380  Biso   1.000  C
  H166     1.0000 0.18700  0.48150  0.18550  Biso   1.000  H
  C239     1.0000 0.25040  0.44950  0.21380  Biso   1.000  C
  C240     1.0000 0.28640  0.41190  0.21140  Biso   1.000  C
  H167     1.0000 0.31090  0.40510  0.23240  Biso   1.000  H
  C241     1.0000 0.28670  0.38480  0.17920  Biso   1.000  C
  H168     1.0000 0.31260  0.36010  0.17780  Biso   1.000  H
  C242     1.0000 0.25060  0.47660  0.25050  Biso   1.000  C
  C243     1.0000 0.25190  0.45030  0.28720  Biso   1.000  C
  C244     1.0000 0.21020  0.41830  0.29270  Biso   1.000  C
  H169     1.0000 0.18130  0.41500  0.27380  Biso   1.000  H
  C245     1.0000 0.20960  0.39090  0.32520  Biso   1.000  C
  H170     1.0000 0.18040  0.36900  0.32840  Biso   1.000  H
  C246     1.0000 0.25110  0.39520  0.35330  Biso   1.000  C
  C247     1.0000 0.29290  0.42790  0.34730  Biso   1.000  C
  H171     1.0000 0.32160  0.43170  0.36630  Biso   1.000  H
  C248     1.0000 0.29410  0.45480  0.31490  Biso   1.000  C
  H172     1.0000 0.32350  0.47640  0.31140  Biso   1.000  H
  C249     1.0000 0.25200  0.36610  0.38820  Biso   1.000  C
  C250     1.0000 0.20130  0.35230  0.40610  Biso   1.000  C
  H173     1.0000 0.16610  0.36320  0.39690  Biso   1.000  H
  C251     1.0000 0.20310  0.32280  0.43710  Biso   1.000  C
  H174     1.0000 0.16840  0.31440  0.44910  Biso   1.000  H
  C252     1.0000 0.29890  0.31920  0.43490  Biso   1.000  C
  H175     1.0000 0.33350  0.30880  0.44560  Biso   1.000  H
  C253     1.0000 0.30120  0.34770  0.40330  Biso   1.000  C
  H176     1.0000 0.33660  0.35480  0.39180  Biso   1.000  H
  N21      1.0000 0.25040  0.30420  0.04931  Biso   1.000  N
  N22      1.0000 0.25090  0.30530  0.45133  Biso   1.000  N
  C254     1.0000 0.20690  0.83060  0.55670  Biso   1.000  C
  H177     1.0000 0.17510  0.82940  0.53990  Biso   1.000  H
  C255     1.0000 0.20560  0.86020  0.58800  Biso   1.000  C
  H178     1.0000 0.17360  0.87920  0.59200  Biso   1.000  H
  C256     1.0000 0.25080  0.86200  0.61370  Biso   1.000  C
  C257     1.0000 0.29530  0.83390  0.60520  Biso   1.000  C
  H179     1.0000 0.32730  0.83360  0.62180  Biso   1.000  H
  C258     1.0000 0.29450  0.80590  0.57310  Biso   1.000  C
  H180     1.0000 0.32650  0.78730  0.56780  Biso   1.000  H
  C259     1.0000 0.24920  0.89280  0.64770  Biso   1.000  C
  C260     1.0000 0.21280  0.92950  0.65110  Biso   1.000  C
  H181     1.0000 0.18720  0.93600  0.63070  Biso   1.000  H
  C261     1.0000 0.21310  0.95700  0.68380  Biso   1.000  C
  H182     1.0000 0.18700  0.98150  0.68550  Biso   1.000  H
  C262     1.0000 0.25040  0.94950  0.71380  Biso   1.000  C
  C263     1.0000 0.28640  0.91190  0.71140  Biso   1.000  C
  H183     1.0000 0.31090  0.90510  0.73240  Biso   1.000  H
  C264     1.0000 0.28670  0.88480  0.67920  Biso   1.000  C
  H184     1.0000 0.31260  0.86010  0.67780  Biso   1.000  H
  C265     1.0000 0.25060  0.97660  0.75050  Biso   1.000  C
  C266     1.0000 0.25190  0.95030  0.78720  Biso   1.000  C
  C267     1.0000 0.21020  0.91830  0.79270  Biso   1.000  C
  H185     1.0000 0.18130  0.91500  0.77380  Biso   1.000  H
  C268     1.0000 0.20960  0.89090  0.82520  Biso   1.000  C
  H186     1.0000 0.18040  0.86900  0.82840  Biso   1.000  H
  C269     1.0000 0.25110  0.89520  0.85330  Biso   1.000  C
  C270     1.0000 0.29290  0.92790  0.84730  Biso   1.000  C
  H187     1.0000 0.32160  0.93170  0.86630  Biso   1.000  H
  C271     1.0000 0.29410  0.95480  0.81490  Biso   1.000  C
  H188     1.0000 0.32350  0.97640  0.81140  Biso   1.000  H
  C272     1.0000 0.25200  0.86610  0.88820  Biso   1.000  C
  C273     1.0000 0.20130  0.85230  0.90610  Biso   1.000  C
  H189     1.0000 0.16610  0.86320  0.89690  Biso   1.000  H
  C274     1.0000 0.20310  0.82280  0.93710  Biso   1.000  C
  H190     1.0000 0.16840  0.81440  0.94910  Biso   1.000  H
  C275     1.0000 0.29890  0.81920  0.93490  Biso   1.000  C
  H191     1.0000 0.33350  0.80880  0.94560  Biso   1.000  H
  C276     1.0000 0.30120  0.84770  0.90330  Biso   1.000  C
  H192     1.0000 0.33660  0.85480  0.89180  Biso   1.000  H
  N23      1.0000 0.25040  0.80420  0.54931  Biso   1.000  N
  N24      1.0000 0.25090  0.80530  0.95133  Biso   1.000  N
  C277     1.0000 0.29310  0.66940  0.55670  Biso   1.000  C
  H193     1.0000 0.32490  0.67060  0.53990  Biso   1.000  H
  C278     1.0000 0.29440  0.63980  0.58800  Biso   1.000  C
  H194     1.0000 0.32640  0.62080  0.59200  Biso   1.000  H
  C279     1.0000 0.24920  0.63800  0.61370  Biso   1.000  C
  C280     1.0000 0.20470  0.66610  0.60520  Biso   1.000  C
  H195     1.0000 0.17270  0.66640  0.62180  Biso   1.000  H
  C281     1.0000 0.20550  0.69410  0.57310  Biso   1.000  C
  H196     1.0000 0.17350  0.71270  0.56780  Biso   1.000  H
  C282     1.0000 0.25080  0.60720  0.64770  Biso   1.000  C
  C283     1.0000 0.28720  0.57050  0.65110  Biso   1.000  C
  H197     1.0000 0.31280  0.56400  0.63070  Biso   1.000  H
  C284     1.0000 0.28690  0.54300  0.68380  Biso   1.000  C
  H198     1.0000 0.31300  0.51850  0.68550  Biso   1.000  H
  C285     1.0000 0.24960  0.55050  0.71380  Biso   1.000  C
  C286     1.0000 0.21360  0.58810  0.71140  Biso   1.000  C
  H199     1.0000 0.18910  0.59490  0.73240  Biso   1.000  H
  C287     1.0000 0.21330  0.61520  0.67920  Biso   1.000  C
  H200     1.0000 0.18740  0.63990  0.67780  Biso   1.000  H
  C288     1.0000 0.24940  0.52340  0.75050  Biso   1.000  C
  C289     1.0000 0.24810  0.54970  0.78720  Biso   1.000  C
  C290     1.0000 0.28980  0.58170  0.79270  Biso   1.000  C
  H201     1.0000 0.31870  0.58500  0.77380  Biso   1.000  H
  C291     1.0000 0.29040  0.60910  0.82520  Biso   1.000  C
  H202     1.0000 0.31960  0.63100  0.82840  Biso   1.000  H
  C292     1.0000 0.24890  0.60480  0.85330  Biso   1.000  C
  C293     1.0000 0.20710  0.57210  0.84730  Biso   1.000  C
  H203     1.0000 0.17840  0.56830  0.86630  Biso   1.000  H
  C294     1.0000 0.20590  0.54520  0.81490  Biso   1.000  C
  H204     1.0000 0.17650  0.52360  0.81140  Biso   1.000  H
  C295     1.0000 0.24800  0.63390  0.88820  Biso   1.000  C
  C296     1.0000 0.29870  0.64770  0.90610  Biso   1.000  C
  H205     1.0000 0.33390  0.63680  0.89690  Biso   1.000  H
  C297     1.0000 0.29690  0.67720  0.93710  Biso   1.000  C
  H206     1.0000 0.33160  0.68560  0.94910  Biso   1.000  H
  C298     1.0000 0.20110  0.68080  0.93490  Biso   1.000  C
  H207     1.0000 0.16650  0.69120  0.94560  Biso   1.000  H
  C299     1.0000 0.19880  0.65230  0.90330  Biso   1.000  C
  H208     1.0000 0.16340  0.64520  0.89180  Biso   1.000  H
  N25      1.0000 0.24960  0.69580  0.54931  Biso   1.000  N
  N26      1.0000 0.24910  0.69470  0.95133  Biso   1.000  N
  C300     1.0000 0.29310  0.16940  0.05670  Biso   1.000  C
  H209     1.0000 0.32490  0.17060  0.03990  Biso   1.000  H
  C301     1.0000 0.29440  0.13980  0.08800  Biso   1.000  C
  H210     1.0000 0.32640  0.12080  0.09200  Biso   1.000  H
  C302     1.0000 0.24920  0.13800  0.11370  Biso   1.000  C
  C303     1.0000 0.20470  0.16610  0.10520  Biso   1.000  C
  H211     1.0000 0.17270  0.16640  0.12180  Biso   1.000  H
  C304     1.0000 0.20550  0.19410  0.07310  Biso   1.000  C
  H212     1.0000 0.17350  0.21270  0.06780  Biso   1.000  H
  C305     1.0000 0.25080  0.10720  0.14770  Biso   1.000  C
  C306     1.0000 0.28720  0.07050  0.15110  Biso   1.000  C
  H213     1.0000 0.31280  0.06400  0.13070  Biso   1.000  H
  C307     1.0000 0.28690  0.04300  0.18380  Biso   1.000  C
  H214     1.0000 0.31300  0.01850  0.18550  Biso   1.000  H
  C308     1.0000 0.24960  0.05050  0.21380  Biso   1.000  C
  C309     1.0000 0.21360  0.08810  0.21140  Biso   1.000  C
  H215     1.0000 0.18910  0.09490  0.23240  Biso   1.000  H
  C310     1.0000 0.21330  0.11520  0.17920  Biso   1.000  C
  H216     1.0000 0.18740  0.13990  0.17780  Biso   1.000  H
  C311     1.0000 0.24940  0.02340  0.25050  Biso   1.000  C
  C312     1.0000 0.24810  0.04970  0.28720  Biso   1.000  C
  C313     1.0000 0.28980  0.08170  0.29270  Biso   1.000  C
  H217     1.0000 0.31870  0.08500  0.27380  Biso   1.000  H
  C314     1.0000 0.29040  0.10910  0.32520  Biso   1.000  C
  H218     1.0000 0.31960  0.13100  0.32840  Biso   1.000  H
  C315     1.0000 0.24890  0.10480  0.35330  Biso   1.000  C
  C316     1.0000 0.20710  0.07210  0.34730  Biso   1.000  C
  H219     1.0000 0.17840  0.06830  0.36630  Biso   1.000  H
  C317     1.0000 0.20590  0.04520  0.31490  Biso   1.000  C
  H220     1.0000 0.17650  0.02360  0.31140  Biso   1.000  H
  C318     1.0000 0.24800  0.13390  0.38820  Biso   1.000  C
  C319     1.0000 0.29870  0.14770  0.40610  Biso   1.000  C
  H221     1.0000 0.33390  0.13680  0.39690  Biso   1.000  H
  C320     1.0000 0.29690  0.17720  0.43710  Biso   1.000  C
  H222     1.0000 0.33160  0.18560  0.44910  Biso   1.000  H
  C321     1.0000 0.20110  0.18080  0.43490  Biso   1.000  C
  H223     1.0000 0.16650  0.19120  0.44560  Biso   1.000  H
  C322     1.0000 0.19880  0.15230  0.40330  Biso   1.000  C
  H224     1.0000 0.16340  0.14520  0.39180  Biso   1.000  H
  N27      1.0000 0.24960  0.19580  0.04931  Biso   1.000  N
  N28      1.0000 0.24910  0.19470  0.45133  Biso   1.000  N
  C323     1.0000 0.29310  0.33060  0.94330  Biso   1.000  C
  H225     1.0000 0.32490  0.32940  0.96010  Biso   1.000  H
  C324     1.0000 0.29440  0.36020  0.91200  Biso   1.000  C
  H226     1.0000 0.32640  0.37920  0.90800  Biso   1.000  H
  C325     1.0000 0.24920  0.36200  0.88630  Biso   1.000  C
  C326     1.0000 0.20470  0.33390  0.89480  Biso   1.000  C
  H227     1.0000 0.17270  0.33360  0.87820  Biso   1.000  H
  C327     1.0000 0.20550  0.30590  0.92690  Biso   1.000  C
  H228     1.0000 0.17350  0.28730  0.93220  Biso   1.000  H
  C328     1.0000 0.25080  0.39280  0.85230  Biso   1.000  C
  C329     1.0000 0.28720  0.42950  0.84890  Biso   1.000  C
  H229     1.0000 0.31280  0.43600  0.86930  Biso   1.000  H
  C330     1.0000 0.28690  0.45700  0.81620  Biso   1.000  C
  H230     1.0000 0.31300  0.48150  0.81450  Biso   1.000  H
  C331     1.0000 0.24960  0.44950  0.78620  Biso   1.000  C
  C332     1.0000 0.21360  0.41190  0.78860  Biso   1.000  C
  H231     1.0000 0.18910  0.40510  0.76760  Biso   1.000  H
  C333     1.0000 0.21330  0.38480  0.82080  Biso   1.000  C
  H232     1.0000 0.18740  0.36010  0.82220  Biso   1.000  H
  C334     1.0000 0.24940  0.47660  0.74950  Biso   1.000  C
  C335     1.0000 0.24810  0.45030  0.71280  Biso   1.000  C
  C336     1.0000 0.28980  0.41830  0.70730  Biso   1.000  C
  H233     1.0000 0.31870  0.41500  0.72620  Biso   1.000  H
  C337     1.0000 0.29040  0.39090  0.67480  Biso   1.000  C
  H234     1.0000 0.31960  0.36900  0.67160  Biso   1.000  H
  C338     1.0000 0.24890  0.39520  0.64670  Biso   1.000  C
  C339     1.0000 0.20710  0.42790  0.65270  Biso   1.000  C
  H235     1.0000 0.17840  0.43170  0.63370  Biso   1.000  H
  C340     1.0000 0.20590  0.45480  0.68510  Biso   1.000  C
  H236     1.0000 0.17650  0.47640  0.68860  Biso   1.000  H
  C341     1.0000 0.24800  0.36610  0.61180  Biso   1.000  C
  C342     1.0000 0.29870  0.35230  0.59390  Biso   1.000  C
  H237     1.0000 0.33390  0.36320  0.60310  Biso   1.000  H
  C343     1.0000 0.29690  0.32280  0.56290  Biso   1.000  C
  H238     1.0000 0.33160  0.31440  0.55090  Biso   1.000  H
  C344     1.0000 0.20110  0.31920  0.56510  Biso   1.000  C
  H239     1.0000 0.16650  0.30880  0.55440  Biso   1.000  H
  C345     1.0000 0.19880  0.34770  0.59670  Biso   1.000  C
  H240     1.0000 0.16340  0.35480  0.60820  Biso   1.000  H
  N29      1.0000 0.24960  0.30420  0.95069  Biso   1.000  N
  N30      1.0000 0.24910  0.30530  0.54867  Biso   1.000  N
  C346     1.0000 0.29310  0.83060  0.44330  Biso   1.000  C
  H241     1.0000 0.32490  0.82940  0.46010  Biso   1.000  H
  C347     1.0000 0.29440  0.86020  0.41200  Biso   1.000  C
  H242     1.0000 0.32640  0.87920  0.40800  Biso   1.000  H
  C348     1.0000 0.24920  0.86200  0.38630  Biso   1.000  C
  C349     1.0000 0.20470  0.83390  0.39480  Biso   1.000  C
  H243     1.0000 0.17270  0.83360  0.37820  Biso   1.000  H
  C350     1.0000 0.20550  0.80590  0.42690  Biso   1.000  C
  H244     1.0000 0.17350  0.78730  0.43220  Biso   1.000  H
  C351     1.0000 0.25080  0.89280  0.35230  Biso   1.000  C
  C352     1.0000 0.28720  0.92950  0.34890  Biso   1.000  C
  H245     1.0000 0.31280  0.93600  0.36930  Biso   1.000  H
  C353     1.0000 0.28690  0.95700  0.31620  Biso   1.000  C
  H246     1.0000 0.31300  0.98150  0.31450  Biso   1.000  H
  C354     1.0000 0.24960  0.94950  0.28620  Biso   1.000  C
  C355     1.0000 0.21360  0.91190  0.28860  Biso   1.000  C
  H247     1.0000 0.18910  0.90510  0.26760  Biso   1.000  H
  C356     1.0000 0.21330  0.88480  0.32080  Biso   1.000  C
  H248     1.0000 0.18740  0.86010  0.32220  Biso   1.000  H
  C357     1.0000 0.24940  0.97660  0.24950  Biso   1.000  C
  C358     1.0000 0.24810  0.95030  0.21280  Biso   1.000  C
  C359     1.0000 0.28980  0.91830  0.20730  Biso   1.000  C
  H249     1.0000 0.31870  0.91500  0.22620  Biso   1.000  H
  C360     1.0000 0.29040  0.89090  0.17480  Biso   1.000  C
  H250     1.0000 0.31960  0.86900  0.17160  Biso   1.000  H
  C361     1.0000 0.24890  0.89520  0.14670  Biso   1.000  C
  C362     1.0000 0.20710  0.92790  0.15270  Biso   1.000  C
  H251     1.0000 0.17840  0.93170  0.13370  Biso   1.000  H
  C363     1.0000 0.20590  0.95480  0.18510  Biso   1.000  C
  H252     1.0000 0.17650  0.97640  0.18860  Biso   1.000  H
  C364     1.0000 0.24800  0.86610  0.11180  Biso   1.000  C
  C365     1.0000 0.29870  0.85230  0.09390  Biso   1.000  C
  H253     1.0000 0.33390  0.86320  0.10310  Biso   1.000  H
  C366     1.0000 0.29690  0.82280  0.06290  Biso   1.000  C
  H254     1.0000 0.33160  0.81440  0.05090  Biso   1.000  H
  C367     1.0000 0.20110  0.81920  0.06510  Biso   1.000  C
  H255     1.0000 0.16650  0.80880  0.05440  Biso   1.000  H
  C368     1.0000 0.19880  0.84770  0.09670  Biso   1.000  C
  H256     1.0000 0.16340  0.85480  0.10820  Biso   1.000  H
  N31      1.0000 0.24960  0.80420  0.45069  Biso   1.000  N
  N32      1.0000 0.24910  0.80530  0.04867  Biso   1.000  N
  Cl5      1.0000 0.35320  0.75000  0.50000  Biso   1.000  Cl
  Cl6      1.0000 0.35320  0.25000  0.00000  Biso   1.000  Cl
  Cl7      1.0000 0.14680  0.75000  0.50000  Biso   1.000  Cl
  Cl8      1.0000 0.14680  0.25000  0.00000  Biso   1.000  Cl
  Cu3      1.0000 0.25000  0.75000  0.50000  Biso   1.000  Cu
  Cu4      1.0000 0.25000  0.25000  0.00000  Biso   1.000  Cu
  C369     1.0000 0.53830  0.44890  0.82780  Biso   1.000  C
  H257     1.0000 0.57160  0.46560  0.82190  Biso   1.000  H
  C370     1.0000 0.53840  0.42240  0.86060  Biso   1.000  C
  H258     1.0000 0.57040  0.42270  0.87710  Biso   1.000  H
  C371     1.0000 0.49330  0.39570  0.86970  Biso   1.000  C
  C372     1.0000 0.44840  0.40030  0.84560  Biso   1.000  C
  H259     1.0000 0.41460  0.38400  0.85110  Biso   1.000  H
  C373     1.0000 0.45080  0.42790  0.81360  Biso   1.000  C
  H260     1.0000 0.41850  0.42940  0.79730  Biso   1.000  H
  C374     1.0000 0.49320  0.36450  0.90370  Biso   1.000  C
  C375     1.0000 0.53380  0.36730  0.93300  Biso   1.000  C
  H261     1.0000 0.56170  0.39060  0.93170  Biso   1.000  H
  C376     1.0000 0.53440  0.33790  0.96330  Biso   1.000  C
  H262     1.0000 0.56260  0.34100  0.98280  Biso   1.000  H
  C377     1.0000 0.49460  0.30320  0.96640  Biso   1.000  C
  C378     1.0000 0.45470  0.30000  0.93770  Biso   1.000  C
  H263     1.0000 0.42710  0.27660  0.93910  Biso   1.000  H
  C379     1.0000 0.45350  0.32950  0.90710  Biso   1.000  C
  H264     1.0000 0.42520  0.32610  0.88780  Biso   1.000  H
  N33      1.0000 0.49570  0.45270  0.80414  Biso   1.000  N
  C380     1.0000 0.53830  0.94890  0.32780  Biso   1.000  C
  H265     1.0000 0.57160  0.96560  0.32190  Biso   1.000  H
  C381     1.0000 0.53840  0.92240  0.36060  Biso   1.000  C
  H266     1.0000 0.57040  0.92270  0.37710  Biso   1.000  H
  C382     1.0000 0.49330  0.89570  0.36970  Biso   1.000  C
  C383     1.0000 0.44840  0.90030  0.34560  Biso   1.000  C
  H267     1.0000 0.41460  0.88400  0.35110  Biso   1.000  H
  C384     1.0000 0.45080  0.92790  0.31360  Biso   1.000  C
  H268     1.0000 0.41850  0.92940  0.29730  Biso   1.000  H
  C385     1.0000 0.49320  0.86450  0.40370  Biso   1.000  C
  C386     1.0000 0.53380  0.86730  0.43300  Biso   1.000  C
  H269     1.0000 0.56170  0.89060  0.43170  Biso   1.000  H
  C387     1.0000 0.53440  0.83790  0.46330  Biso   1.000  C
  H270     1.0000 0.56260  0.84100  0.48280  Biso   1.000  H
  C388     1.0000 0.49460  0.80320  0.46640  Biso   1.000  C
  C389     1.0000 0.45470  0.80000  0.43770  Biso   1.000  C
  H271     1.0000 0.42710  0.77660  0.43910  Biso   1.000  H
  C390     1.0000 0.45350  0.82950  0.40710  Biso   1.000  C
  H272     1.0000 0.42520  0.82610  0.38780  Biso   1.000  H
  N34      1.0000 0.49570  0.95270  0.30414  Biso   1.000  N
  C391     1.0000 0.53830  0.55110  0.67220  Biso   1.000  C
  H273     1.0000 0.57160  0.53440  0.67810  Biso   1.000  H
  C392     1.0000 0.53840  0.57760  0.63940  Biso   1.000  C
  H274     1.0000 0.57040  0.57730  0.62290  Biso   1.000  H
  C393     1.0000 0.49330  0.60430  0.63030  Biso   1.000  C
  C394     1.0000 0.44840  0.59970  0.65440  Biso   1.000  C
  H275     1.0000 0.41460  0.61600  0.64890  Biso   1.000  H
  C395     1.0000 0.45080  0.57210  0.68640  Biso   1.000  C
  H276     1.0000 0.41850  0.57060  0.70270  Biso   1.000  H
  C396     1.0000 0.49320  0.63550  0.59630  Biso   1.000  C
  C397     1.0000 0.53380  0.63270  0.56700  Biso   1.000  C
  H277     1.0000 0.56170  0.60940  0.56830  Biso   1.000  H
  C398     1.0000 0.53440  0.66210  0.53670  Biso   1.000  C
  H278     1.0000 0.56260  0.65900  0.51720  Biso   1.000  H
  C399     1.0000 0.49460  0.69680  0.53360  Biso   1.000  C
  C400     1.0000 0.45470  0.70000  0.56230  Biso   1.000  C
  H279     1.0000 0.42710  0.72340  0.56090  Biso   1.000  H
  C401     1.0000 0.45350  0.67050  0.59290  Biso   1.000  C
  H280     1.0000 0.42520  0.67390  0.61220  Biso   1.000  H
  N35      1.0000 0.49570  0.54730  0.69586  Biso   1.000  N
  C402     1.0000 0.53830  0.05110  0.17220  Biso   1.000  C
  H281     1.0000 0.57160  0.03440  0.17810  Biso   1.000  H
  C403     1.0000 0.53840  0.07760  0.13940  Biso   1.000  C
  H282     1.0000 0.57040  0.07730  0.12290  Biso   1.000  H
  C404     1.0000 0.49330  0.10430  0.13030  Biso   1.000  C
  C405     1.0000 0.44840  0.09970  0.15440  Biso   1.000  C
  H283     1.0000 0.41460  0.11600  0.14890  Biso   1.000  H
  C406     1.0000 0.45080  0.07210  0.18640  Biso   1.000  C
  H284     1.0000 0.41850  0.07060  0.20270  Biso   1.000  H
  C407     1.0000 0.49320  0.13550  0.09630  Biso   1.000  C
  C408     1.0000 0.53380  0.13270  0.06700  Biso   1.000  C
  H285     1.0000 0.56170  0.10940  0.06830  Biso   1.000  H
  C409     1.0000 0.53440  0.16210  0.03670  Biso   1.000  C
  H286     1.0000 0.56260  0.15900  0.01720  Biso   1.000  H
  C410     1.0000 0.49460  0.19680  0.03360  Biso   1.000  C
  C411     1.0000 0.45470  0.20000  0.06230  Biso   1.000  C
  H287     1.0000 0.42710  0.22340  0.06090  Biso   1.000  H
  C412     1.0000 0.45350  0.17050  0.09290  Biso   1.000  C
  H288     1.0000 0.42520  0.17390  0.11220  Biso   1.000  H
  N36      1.0000 0.49570  0.04730  0.19586  Biso   1.000  N
  C413     1.0000 0.49700  0.72770  0.49850  Biso   1.000  C
  C414     1.0000 0.49790  0.70310  0.46050  Biso   1.000  C
  C415     1.0000 0.45570  0.67100  0.45340  Biso   1.000  C
  H289     1.0000 0.42760  0.66570  0.47250  Biso   1.000  H
  C416     1.0000 0.45400  0.64680  0.41930  Biso   1.000  C
  H290     1.0000 0.42370  0.62630  0.41450  Biso   1.000  H
  C417     1.0000 0.49670  0.65250  0.39170  Biso   1.000  C
  C418     1.0000 0.53770  0.68420  0.39910  Biso   1.000  C
  H291     1.0000 0.56670  0.68870  0.38050  Biso   1.000  H
  C419     1.0000 0.53840  0.70970  0.43230  Biso   1.000  C
  H292     1.0000 0.56700  0.73200  0.43600  Biso   1.000  H
  C420     1.0000 0.49790  0.62310  0.35630  Biso   1.000  C
  C421     1.0000 0.44870  0.60740  0.33890  Biso   1.000  C
  H293     1.0000 0.41290  0.61720  0.34810  Biso   1.000  H
  C422     1.0000 0.45210  0.57760  0.30790  Biso   1.000  C
  H294     1.0000 0.41780  0.56750  0.29640  Biso   1.000  H
  C423     1.0000 0.54660  0.57740  0.30960  Biso   1.000  C
  H295     1.0000 0.58180  0.56680  0.29990  Biso   1.000  H
  C424     1.0000 0.54760  0.60800  0.34040  Biso   1.000  C
  H296     1.0000 0.58270  0.61850  0.35040  Biso   1.000  H
  N37      1.0000 0.50040  0.56210  0.29307  Biso   1.000  N
  C425     1.0000 0.49700  0.22770  0.99850  Biso   1.000  C
  C426     1.0000 0.49790  0.20310  0.96050  Biso   1.000  C
  C427     1.0000 0.45570  0.17100  0.95340  Biso   1.000  C
  H297     1.0000 0.42760  0.16570  0.97250  Biso   1.000  H
  C428     1.0000 0.45400  0.14680  0.91930  Biso   1.000  C
  H298     1.0000 0.42370  0.12630  0.91450  Biso   1.000  H
  C429     1.0000 0.49670  0.15250  0.89170  Biso   1.000  C
  C430     1.0000 0.53770  0.18420  0.89910  Biso   1.000  C
  H299     1.0000 0.56670  0.18870  0.88050  Biso   1.000  H
  C431     1.0000 0.53840  0.20970  0.93230  Biso   1.000  C
  H300     1.0000 0.56700  0.23200  0.93600  Biso   1.000  H
  C432     1.0000 0.49790  0.12310  0.85630  Biso   1.000  C
  C433     1.0000 0.44870  0.10740  0.83890  Biso   1.000  C
  H301     1.0000 0.41290  0.11720  0.84810  Biso   1.000  H
  C434     1.0000 0.45210  0.07760  0.80790  Biso   1.000  C
  H302     1.0000 0.41780  0.06750  0.79640  Biso   1.000  H
  C435     1.0000 0.54660  0.07740  0.80960  Biso   1.000  C
  H303     1.0000 0.58180  0.06680  0.79990  Biso   1.000  H
  C436     1.0000 0.54760  0.10800  0.84040  Biso   1.000  C
  H304     1.0000 0.58270  0.11850  0.85040  Biso   1.000  H
  N38      1.0000 0.50040  0.06210  0.79307  Biso   1.000  N
  C437     1.0000 0.49700  0.27230  0.00150  Biso   1.000  C
  C438     1.0000 0.49790  0.29690  0.03950  Biso   1.000  C
  C439     1.0000 0.45570  0.32900  0.04660  Biso   1.000  C
  H305     1.0000 0.42760  0.33430  0.02750  Biso   1.000  H
  C440     1.0000 0.45400  0.35320  0.08070  Biso   1.000  C
  H306     1.0000 0.42370  0.37370  0.08550  Biso   1.000  H
  C441     1.0000 0.49670  0.34750  0.10830  Biso   1.000  C
  C442     1.0000 0.53770  0.31580  0.10090  Biso   1.000  C
  H307     1.0000 0.56670  0.31130  0.11950  Biso   1.000  H
  C443     1.0000 0.53840  0.29030  0.06770  Biso   1.000  C
  H308     1.0000 0.56700  0.26800  0.06400  Biso   1.000  H
  C444     1.0000 0.49790  0.37690  0.14370  Biso   1.000  C
  C445     1.0000 0.44870  0.39260  0.16110  Biso   1.000  C
  H309     1.0000 0.41290  0.38280  0.15190  Biso   1.000  H
  C446     1.0000 0.45210  0.42240  0.19210  Biso   1.000  C
  H310     1.0000 0.41780  0.43250  0.20360  Biso   1.000  H
  C447     1.0000 0.54660  0.42260  0.19040  Biso   1.000  C
  H311     1.0000 0.58180  0.43320  0.20010  Biso   1.000  H
  C448     1.0000 0.54760  0.39200  0.15960  Biso   1.000  C
  H312     1.0000 0.58270  0.38150  0.14960  Biso   1.000  H
  N39      1.0000 0.50040  0.43790  0.20693  Biso   1.000  N
  C449     1.0000 0.49700  0.77230  0.50150  Biso   1.000  C
  C450     1.0000 0.49790  0.79690  0.53950  Biso   1.000  C
  C451     1.0000 0.45570  0.82900  0.54660  Biso   1.000  C
  H313     1.0000 0.42760  0.83430  0.52750  Biso   1.000  H
  C452     1.0000 0.45400  0.85320  0.58070  Biso   1.000  C
  H314     1.0000 0.42370  0.87370  0.58550  Biso   1.000  H
  C453     1.0000 0.49670  0.84750  0.60830  Biso   1.000  C
  C454     1.0000 0.53770  0.81580  0.60090  Biso   1.000  C
  H315     1.0000 0.56670  0.81130  0.61950  Biso   1.000  H
  C455     1.0000 0.53840  0.79030  0.56770  Biso   1.000  C
  H316     1.0000 0.56700  0.76800  0.56400  Biso   1.000  H
  C456     1.0000 0.49790  0.87690  0.64370  Biso   1.000  C
  C457     1.0000 0.44870  0.89260  0.66110  Biso   1.000  C
  H317     1.0000 0.41290  0.88280  0.65190  Biso   1.000  H
  C458     1.0000 0.45210  0.92240  0.69210  Biso   1.000  C
  H318     1.0000 0.41780  0.93250  0.70360  Biso   1.000  H
  C459     1.0000 0.54660  0.92260  0.69040  Biso   1.000  C
  H319     1.0000 0.58180  0.93320  0.70010  Biso   1.000  H
  C460     1.0000 0.54760  0.89200  0.65960  Biso   1.000  C
  H320     1.0000 0.58270  0.88150  0.64960  Biso   1.000  H
  N40      1.0000 0.50040  0.93790  0.70693  Biso   1.000  N
  Cl9      1.0000 0.39418  0.50000  0.75000  Biso   1.000  Cl
  Cl10     1.0000 0.60139  0.50000  0.75000  Biso   1.000  Cl
  Cu5      1.0000 0.49774  0.50000  0.75000  Biso   1.000  Cu
  Cl11     1.0000 0.39418  0.00000  0.25000  Biso   1.000  Cl
  Cl12     1.0000 0.60139  0.00000  0.25000  Biso   1.000  Cl
  Cu6      1.0000 0.49774  0.00000  0.25000  Biso   1.000  Cu
  C461     1.0000 0.50300  0.27230  0.50150  Biso   1.000  C
  C462     1.0000 0.50210  0.29690  0.53950  Biso   1.000  C
  C463     1.0000 0.54430  0.32900  0.54660  Biso   1.000  C
  H321     1.0000 0.57240  0.33430  0.52750  Biso   1.000  H
  C464     1.0000 0.54600  0.35320  0.58070  Biso   1.000  C
  H322     1.0000 0.57630  0.37370  0.58550  Biso   1.000  H
  C465     1.0000 0.50330  0.34750  0.60830  Biso   1.000  C
  C466     1.0000 0.46230  0.31580  0.60090  Biso   1.000  C
  H323     1.0000 0.43330  0.31130  0.61950  Biso   1.000  H
  C467     1.0000 0.46160  0.29030  0.56770  Biso   1.000  C
  H324     1.0000 0.43300  0.26800  0.56400  Biso   1.000  H
  C468     1.0000 0.50210  0.37690  0.64370  Biso   1.000  C
  C469     1.0000 0.55130  0.39260  0.66110  Biso   1.000  C
  H325     1.0000 0.58710  0.38280  0.65190  Biso   1.000  H
  C470     1.0000 0.54790  0.42240  0.69210  Biso   1.000  C
  H326     1.0000 0.58220  0.43250  0.70360  Biso   1.000  H
  C471     1.0000 0.45340  0.42260  0.69040  Biso   1.000  C
  H327     1.0000 0.41820  0.43320  0.70010  Biso   1.000  H
  C472     1.0000 0.45240  0.39200  0.65960  Biso   1.000  C
  H328     1.0000 0.41730  0.38150  0.64960  Biso   1.000  H
  N41      1.0000 0.49960  0.43790  0.70693  Biso   1.000  N
  C473     1.0000 0.50300  0.77230  0.00150  Biso   1.000  C
  C474     1.0000 0.50210  0.79690  0.03950  Biso   1.000  C
  C475     1.0000 0.54430  0.82900  0.04660  Biso   1.000  C
  H329     1.0000 0.57240  0.83430  0.02750  Biso   1.000  H
  C476     1.0000 0.54600  0.85320  0.08070  Biso   1.000  C
  H330     1.0000 0.57630  0.87370  0.08550  Biso   1.000  H
  C477     1.0000 0.50330  0.84750  0.10830  Biso   1.000  C
  C478     1.0000 0.46230  0.81580  0.10090  Biso   1.000  C
  H331     1.0000 0.43330  0.81130  0.11950  Biso   1.000  H
  C479     1.0000 0.46160  0.79030  0.06770  Biso   1.000  C
  H332     1.0000 0.43300  0.76800  0.06400  Biso   1.000  H
  C480     1.0000 0.50210  0.87690  0.14370  Biso   1.000  C
  C481     1.0000 0.55130  0.89260  0.16110  Biso   1.000  C
  H333     1.0000 0.58710  0.88280  0.15190  Biso   1.000  H
  C482     1.0000 0.54790  0.92240  0.19210  Biso   1.000  C
  H334     1.0000 0.58220  0.93250  0.20360  Biso   1.000  H
  C483     1.0000 0.45340  0.92260  0.19040  Biso   1.000  C
  H335     1.0000 0.41820  0.93320  0.20010  Biso   1.000  H
  C484     1.0000 0.45240  0.89200  0.15960  Biso   1.000  C
  H336     1.0000 0.41730  0.88150  0.14960  Biso   1.000  H
  N42      1.0000 0.49960  0.93790  0.20693  Biso   1.000  N
  C485     1.0000 0.50300  0.72770  0.99850  Biso   1.000  C
  C486     1.0000 0.50210  0.70310  0.96050  Biso   1.000  C
  C487     1.0000 0.54430  0.67100  0.95340  Biso   1.000  C
  H337     1.0000 0.57240  0.66570  0.97250  Biso   1.000  H
  C488     1.0000 0.54600  0.64680  0.91930  Biso   1.000  C
  H338     1.0000 0.57630  0.62630  0.91450  Biso   1.000  H
  C489     1.0000 0.50330  0.65250  0.89170  Biso   1.000  C
  C490     1.0000 0.46230  0.68420  0.89910  Biso   1.000  C
  H339     1.0000 0.43330  0.68870  0.88050  Biso   1.000  H
  C491     1.0000 0.46160  0.70970  0.93230  Biso   1.000  C
  H340     1.0000 0.43300  0.73200  0.93600  Biso   1.000  H
  C492     1.0000 0.50210  0.62310  0.85630  Biso   1.000  C
  C493     1.0000 0.55130  0.60740  0.83890  Biso   1.000  C
  H341     1.0000 0.58710  0.61720  0.84810  Biso   1.000  H
  C494     1.0000 0.54790  0.57760  0.80790  Biso   1.000  C
  H342     1.0000 0.58220  0.56750  0.79640  Biso   1.000  H
  C495     1.0000 0.45340  0.57740  0.80960  Biso   1.000  C
  H343     1.0000 0.41820  0.56680  0.79990  Biso   1.000  H
  C496     1.0000 0.45240  0.60800  0.84040  Biso   1.000  C
  H344     1.0000 0.41730  0.61850  0.85040  Biso   1.000  H
  N43      1.0000 0.49960  0.56210  0.79307  Biso   1.000  N
  C497     1.0000 0.50300  0.22770  0.49850  Biso   1.000  C
  C498     1.0000 0.50210  0.20310  0.46050  Biso   1.000  C
  C499     1.0000 0.54430  0.17100  0.45340  Biso   1.000  C
  H345     1.0000 0.57240  0.16570  0.47250  Biso   1.000  H
  C500     1.0000 0.54600  0.14680  0.41930  Biso   1.000  C
  H346     1.0000 0.57630  0.12630  0.41450  Biso   1.000  H
  C501     1.0000 0.50330  0.15250  0.39170  Biso   1.000  C
  C502     1.0000 0.46230  0.18420  0.39910  Biso   1.000  C
  H347     1.0000 0.43330  0.18870  0.38050  Biso   1.000  H
  C503     1.0000 0.46160  0.20970  0.43230  Biso   1.000  C
  H348     1.0000 0.43300  0.23200  0.43600  Biso   1.000  H
  C504     1.0000 0.50210  0.12310  0.35630  Biso   1.000  C
  C505     1.0000 0.55130  0.10740  0.33890  Biso   1.000  C
  H349     1.0000 0.58710  0.11720  0.34810  Biso   1.000  H
  C506     1.0000 0.54790  0.07760  0.30790  Biso   1.000  C
  H350     1.0000 0.58220  0.06750  0.29640  Biso   1.000  H
  C507     1.0000 0.45340  0.07740  0.30960  Biso   1.000  C
  H351     1.0000 0.41820  0.06680  0.29990  Biso   1.000  H
  C508     1.0000 0.45240  0.10800  0.34040  Biso   1.000  C
  H352     1.0000 0.41730  0.11850  0.35040  Biso   1.000  H
  N44      1.0000 0.49960  0.06210  0.29307  Biso   1.000  N
  C509     1.0000 0.46170  0.55110  0.17220  Biso   1.000  C
  H353     1.0000 0.42840  0.53440  0.17810  Biso   1.000  H
  C510     1.0000 0.46160  0.57760  0.13940  Biso   1.000  C
  H354     1.0000 0.42960  0.57730  0.12290  Biso   1.000  H
  C511     1.0000 0.50670  0.60430  0.13030  Biso   1.000  C
  C512     1.0000 0.55160  0.59970  0.15440  Biso   1.000  C
  H355     1.0000 0.58540  0.61600  0.14890  Biso   1.000  H
  C513     1.0000 0.54920  0.57210  0.18640  Biso   1.000  C
  H356     1.0000 0.58150  0.57060  0.20270  Biso   1.000  H
  C514     1.0000 0.50680  0.63550  0.09630  Biso   1.000  C
  C515     1.0000 0.46620  0.63270  0.06700  Biso   1.000  C
  H357     1.0000 0.43830  0.60940  0.06830  Biso   1.000  H
  C516     1.0000 0.46560  0.66210  0.03670  Biso   1.000  C
  H358     1.0000 0.43740  0.65900  0.01720  Biso   1.000  H
  C517     1.0000 0.50540  0.69680  0.03360  Biso   1.000  C
  C518     1.0000 0.54530  0.70000  0.06230  Biso   1.000  C
  H359     1.0000 0.57290  0.72340  0.06090  Biso   1.000  H
  C519     1.0000 0.54650  0.67050  0.09290  Biso   1.000  C
  H360     1.0000 0.57480  0.67390  0.11220  Biso   1.000  H
  N45      1.0000 0.50430  0.54730  0.19586  Biso   1.000  N
  C520     1.0000 0.46170  0.05110  0.67220  Biso   1.000  C
  H361     1.0000 0.42840  0.03440  0.67810  Biso   1.000  H
  C521     1.0000 0.46160  0.07760  0.63940  Biso   1.000  C
  H362     1.0000 0.42960  0.07730  0.62290  Biso   1.000  H
  C522     1.0000 0.50670  0.10430  0.63030  Biso   1.000  C
  C523     1.0000 0.55160  0.09970  0.65440  Biso   1.000  C
  H363     1.0000 0.58540  0.11600  0.64890  Biso   1.000  H
  C524     1.0000 0.54920  0.07210  0.68640  Biso   1.000  C
  H364     1.0000 0.58150  0.07060  0.70270  Biso   1.000  H
  C525     1.0000 0.50680  0.13550  0.59630  Biso   1.000  C
  C526     1.0000 0.46620  0.13270  0.56700  Biso   1.000  C
  H365     1.0000 0.43830  0.10940  0.56830  Biso   1.000  H
  C527     1.0000 0.46560  0.16210  0.53670  Biso   1.000  C
  H366     1.0000 0.43740  0.15900  0.51720  Biso   1.000  H
  C528     1.0000 0.50540  0.19680  0.53360  Biso   1.000  C
  C529     1.0000 0.54530  0.20000  0.56230  Biso   1.000  C
  H367     1.0000 0.57290  0.22340  0.56090  Biso   1.000  H
  C530     1.0000 0.54650  0.17050  0.59290  Biso   1.000  C
  H368     1.0000 0.57480  0.17390  0.61220  Biso   1.000  H
  N46      1.0000 0.50430  0.04730  0.69586  Biso   1.000  N
  C531     1.0000 0.46170  0.44890  0.32780  Biso   1.000  C
  H369     1.0000 0.42840  0.46560  0.32190  Biso   1.000  H
  C532     1.0000 0.46160  0.42240  0.36060  Biso   1.000  C
  H370     1.0000 0.42960  0.42270  0.37710  Biso   1.000  H
  C533     1.0000 0.50670  0.39570  0.36970  Biso   1.000  C
  C534     1.0000 0.55160  0.40030  0.34560  Biso   1.000  C
  H371     1.0000 0.58540  0.38400  0.35110  Biso   1.000  H
  C535     1.0000 0.54920  0.42790  0.31360  Biso   1.000  C
  H372     1.0000 0.58150  0.42940  0.29730  Biso   1.000  H
  C536     1.0000 0.50680  0.36450  0.40370  Biso   1.000  C
  C537     1.0000 0.46620  0.36730  0.43300  Biso   1.000  C
  H373     1.0000 0.43830  0.39060  0.43170  Biso   1.000  H
  C538     1.0000 0.46560  0.33790  0.46330  Biso   1.000  C
  H374     1.0000 0.43740  0.34100  0.48280  Biso   1.000  H
  C539     1.0000 0.50540  0.30320  0.46640  Biso   1.000  C
  C540     1.0000 0.54530  0.30000  0.43770  Biso   1.000  C
  H375     1.0000 0.57290  0.27660  0.43910  Biso   1.000  H
  C541     1.0000 0.54650  0.32950  0.40710  Biso   1.000  C
  H376     1.0000 0.57480  0.32610  0.38780  Biso   1.000  H
  N47      1.0000 0.50430  0.45270  0.30414  Biso   1.000  N
  C542     1.0000 0.46170  0.94890  0.82780  Biso   1.000  C
  H377     1.0000 0.42840  0.96560  0.82190  Biso   1.000  H
  C543     1.0000 0.46160  0.92240  0.86060  Biso   1.000  C
  H378     1.0000 0.42960  0.92270  0.87710  Biso   1.000  H
  C544     1.0000 0.50670  0.89570  0.86970  Biso   1.000  C
  C545     1.0000 0.55160  0.90030  0.84560  Biso   1.000  C
  H379     1.0000 0.58540  0.88400  0.85110  Biso   1.000  H
  C546     1.0000 0.54920  0.92790  0.81360  Biso   1.000  C
  H380     1.0000 0.58150  0.92940  0.79730  Biso   1.000  H
  C547     1.0000 0.50680  0.86450  0.90370  Biso   1.000  C
  C548     1.0000 0.46620  0.86730  0.93300  Biso   1.000  C
  H381     1.0000 0.43830  0.89060  0.93170  Biso   1.000  H
  C549     1.0000 0.46560  0.83790  0.96330  Biso   1.000  C
  H382     1.0000 0.43740  0.84100  0.98280  Biso   1.000  H
  C550     1.0000 0.50540  0.80320  0.96640  Biso   1.000  C
  C551     1.0000 0.54530  0.80000  0.93770  Biso   1.000  C
  H383     1.0000 0.57290  0.77660  0.93910  Biso   1.000  H
  C552     1.0000 0.54650  0.82950  0.90710  Biso   1.000  C
  H384     1.0000 0.57480  0.82610  0.88780  Biso   1.000  H
  N48      1.0000 0.50430  0.95270  0.80414  Biso   1.000  N
  Cl13     1.0000 0.60582  0.50000  0.25000  Biso   1.000  Cl
  Cl14     1.0000 0.39861  0.50000  0.25000  Biso   1.000  Cl
  Cu7      1.0000 0.50226  0.50000  0.25000  Biso   1.000  Cu
  Cl15     1.0000 0.60582  0.00000  0.75000  Biso   1.000  Cl
  Cl16     1.0000 0.39861  0.00000  0.75000  Biso   1.000  Cl
  Cu8      1.0000 0.50226  0.00000  0.75000  Biso   1.000  Cu
  C553     1.0000 0.96170  0.44890  0.17220  Biso   1.000  C
  H385     1.0000 0.92840  0.46560  0.17810  Biso   1.000  H
  C554     1.0000 0.96160  0.42240  0.13940  Biso   1.000  C
  H386     1.0000 0.92960  0.42270  0.12290  Biso   1.000  H
  C555     1.0000 0.00670  0.39570  0.13030  Biso   1.000  C
  C556     1.0000 0.05160  0.40030  0.15440  Biso   1.000  C
  H387     1.0000 0.08540  0.38400  0.14890  Biso   1.000  H
  C557     1.0000 0.04920  0.42790  0.18640  Biso   1.000  C
  H388     1.0000 0.08150  0.42940  0.20270  Biso   1.000  H
  C558     1.0000 0.00680  0.36450  0.09630  Biso   1.000  C
  C559     1.0000 0.96620  0.36730  0.06700  Biso   1.000  C
  H389     1.0000 0.93830  0.39060  0.06830  Biso   1.000  H
  C560     1.0000 0.96560  0.33790  0.03670  Biso   1.000  C
  H390     1.0000 0.93740  0.34100  0.01720  Biso   1.000  H
  C561     1.0000 0.00540  0.30320  0.03360  Biso   1.000  C
  C562     1.0000 0.04530  0.30000  0.06230  Biso   1.000  C
  H391     1.0000 0.07290  0.27660  0.06090  Biso   1.000  H
  C563     1.0000 0.04650  0.32950  0.09290  Biso   1.000  C
  H392     1.0000 0.07480  0.32610  0.11220  Biso   1.000  H
  N49      1.0000 0.00430  0.45270  0.19586  Biso   1.000  N
  C564     1.0000 0.96170  0.94890  0.67220  Biso   1.000  C
  H393     1.0000 0.92840  0.96560  0.67810  Biso   1.000  H
  C565     1.0000 0.96160  0.92240  0.63940  Biso   1.000  C
  H394     1.0000 0.92960  0.92270  0.62290  Biso   1.000  H
  C566     1.0000 0.00670  0.89570  0.63030  Biso   1.000  C
  C567     1.0000 0.05160  0.90030  0.65440  Biso   1.000  C
  H395     1.0000 0.08540  0.88400  0.64890  Biso   1.000  H
  C568     1.0000 0.04920  0.92790  0.68640  Biso   1.000  C
  H396     1.0000 0.08150  0.92940  0.70270  Biso   1.000  H
  C569     1.0000 0.00680  0.86450  0.59630  Biso   1.000  C
  C570     1.0000 0.96620  0.86730  0.56700  Biso   1.000  C
  H397     1.0000 0.93830  0.89060  0.56830  Biso   1.000  H
  C571     1.0000 0.96560  0.83790  0.53670  Biso   1.000  C
  H398     1.0000 0.93740  0.84100  0.51720  Biso   1.000  H
  C572     1.0000 0.00540  0.80320  0.53360  Biso   1.000  C
  C573     1.0000 0.04530  0.80000  0.56230  Biso   1.000  C
  H399     1.0000 0.07290  0.77660  0.56090  Biso   1.000  H
  C574     1.0000 0.04650  0.82950  0.59290  Biso   1.000  C
  H400     1.0000 0.07480  0.82610  0.61220  Biso   1.000  H
  N50      1.0000 0.00430  0.95270  0.69586  Biso   1.000  N
  C575     1.0000 0.96170  0.55110  0.32780  Biso   1.000  C
  H401     1.0000 0.92840  0.53440  0.32190  Biso   1.000  H
  C576     1.0000 0.96160  0.57760  0.36060  Biso   1.000  C
  H402     1.0000 0.92960  0.57730  0.37710  Biso   1.000  H
  C577     1.0000 0.00670  0.60430  0.36970  Biso   1.000  C
  C578     1.0000 0.05160  0.59970  0.34560  Biso   1.000  C
  H403     1.0000 0.08540  0.61600  0.35110  Biso   1.000  H
  C579     1.0000 0.04920  0.57210  0.31360  Biso   1.000  C
  H404     1.0000 0.08150  0.57060  0.29730  Biso   1.000  H
  C580     1.0000 0.00680  0.63550  0.40370  Biso   1.000  C
  C581     1.0000 0.96620  0.63270  0.43300  Biso   1.000  C
  H405     1.0000 0.93830  0.60940  0.43170  Biso   1.000  H
  C582     1.0000 0.96560  0.66210  0.46330  Biso   1.000  C
  H406     1.0000 0.93740  0.65900  0.48280  Biso   1.000  H
  C583     1.0000 0.00540  0.69680  0.46640  Biso   1.000  C
  C584     1.0000 0.04530  0.70000  0.43770  Biso   1.000  C
  H407     1.0000 0.07290  0.72340  0.43910  Biso   1.000  H
  C585     1.0000 0.04650  0.67050  0.40710  Biso   1.000  C
  H408     1.0000 0.07480  0.67390  0.38780  Biso   1.000  H
  N51      1.0000 0.00430  0.54730  0.30414  Biso   1.000  N
  C586     1.0000 0.96170  0.05110  0.82780  Biso   1.000  C
  H409     1.0000 0.92840  0.03440  0.82190  Biso   1.000  H
  C587     1.0000 0.96160  0.07760  0.86060  Biso   1.000  C
  H410     1.0000 0.92960  0.07730  0.87710  Biso   1.000  H
  C588     1.0000 0.00670  0.10430  0.86970  Biso   1.000  C
  C589     1.0000 0.05160  0.09970  0.84560  Biso   1.000  C
  H411     1.0000 0.08540  0.11600  0.85110  Biso   1.000  H
  C590     1.0000 0.04920  0.07210  0.81360  Biso   1.000  C
  H412     1.0000 0.08150  0.07060  0.79730  Biso   1.000  H
  C591     1.0000 0.00680  0.13550  0.90370  Biso   1.000  C
  C592     1.0000 0.96620  0.13270  0.93300  Biso   1.000  C
  H413     1.0000 0.93830  0.10940  0.93170  Biso   1.000  H
  C593     1.0000 0.96560  0.16210  0.96330  Biso   1.000  C
  H414     1.0000 0.93740  0.15900  0.98280  Biso   1.000  H
  C594     1.0000 0.00540  0.19680  0.96640  Biso   1.000  C
  C595     1.0000 0.04530  0.20000  0.93770  Biso   1.000  C
  H415     1.0000 0.07290  0.22340  0.93910  Biso   1.000  H
  C596     1.0000 0.04650  0.17050  0.90710  Biso   1.000  C
  H416     1.0000 0.07480  0.17390  0.88780  Biso   1.000  H
  N52      1.0000 0.00430  0.04730  0.80414  Biso   1.000  N
  C597     1.0000 0.00300  0.72770  0.50150  Biso   1.000  C
  C598     1.0000 0.00210  0.70310  0.53950  Biso   1.000  C
  C599     1.0000 0.04430  0.67100  0.54660  Biso   1.000  C
  H417     1.0000 0.07240  0.66570  0.52750  Biso   1.000  H
  C600     1.0000 0.04600  0.64680  0.58070  Biso   1.000  C
  H418     1.0000 0.07630  0.62630  0.58550  Biso   1.000  H
  C601     1.0000 0.00330  0.65250  0.60830  Biso   1.000  C
  C602     1.0000 0.96230  0.68420  0.60090  Biso   1.000  C
  H419     1.0000 0.93330  0.68870  0.61950  Biso   1.000  H
  C603     1.0000 0.96160  0.70970  0.56770  Biso   1.000  C
  H420     1.0000 0.93300  0.73200  0.56400  Biso   1.000  H
  C604     1.0000 0.00210  0.62310  0.64370  Biso   1.000  C
  C605     1.0000 0.05130  0.60740  0.66110  Biso   1.000  C
  H421     1.0000 0.08710  0.61720  0.65190  Biso   1.000  H
  C606     1.0000 0.04790  0.57760  0.69210  Biso   1.000  C
  H422     1.0000 0.08220  0.56750  0.70360  Biso   1.000  H
  C607     1.0000 0.95340  0.57740  0.69040  Biso   1.000  C
  H423     1.0000 0.91820  0.56680  0.70010  Biso   1.000  H
  C608     1.0000 0.95240  0.60800  0.65960  Biso   1.000  C
  H424     1.0000 0.91730  0.61850  0.64960  Biso   1.000  H
  N53      1.0000 0.99960  0.56210  0.70693  Biso   1.000  N
  C609     1.0000 0.00300  0.22770  0.00150  Biso   1.000  C
  C610     1.0000 0.00210  0.20310  0.03950  Biso   1.000  C
  C611     1.0000 0.04430  0.17100  0.04660  Biso   1.000  C
  H425     1.0000 0.07240  0.16570  0.02750  Biso   1.000  H
  C612     1.0000 0.04600  0.14680  0.08070  Biso   1.000  C
  H426     1.0000 0.07630  0.12630  0.08550  Biso   1.000  H
  C613     1.0000 0.00330  0.15250  0.10830  Biso   1.000  C
  C614     1.0000 0.96230  0.18420  0.10090  Biso   1.000  C
  H427     1.0000 0.93330  0.18870  0.11950  Biso   1.000  H
  C615     1.0000 0.96160  0.20970  0.06770  Biso   1.000  C
  H428     1.0000 0.93300  0.23200  0.06400  Biso   1.000  H
  C616     1.0000 0.00210  0.12310  0.14370  Biso   1.000  C
  C617     1.0000 0.05130  0.10740  0.16110  Biso   1.000  C
  H429     1.0000 0.08710  0.11720  0.15190  Biso   1.000  H
  C618     1.0000 0.04790  0.07760  0.19210  Biso   1.000  C
  H430     1.0000 0.08220  0.06750  0.20360  Biso   1.000  H
  C619     1.0000 0.95340  0.07740  0.19040  Biso   1.000  C
  H431     1.0000 0.91820  0.06680  0.20010  Biso   1.000  H
  C620     1.0000 0.95240  0.10800  0.15960  Biso   1.000  C
  H432     1.0000 0.91730  0.11850  0.14960  Biso   1.000  H
  N54      1.0000 0.99960  0.06210  0.20693  Biso   1.000  N
  C621     1.0000 0.00300  0.27230  0.99850  Biso   1.000  C
  C622     1.0000 0.00210  0.29690  0.96050  Biso   1.000  C
  C623     1.0000 0.04430  0.32900  0.95340  Biso   1.000  C
  H433     1.0000 0.07240  0.33430  0.97250  Biso   1.000  H
  C624     1.0000 0.04600  0.35320  0.91930  Biso   1.000  C
  H434     1.0000 0.07630  0.37370  0.91450  Biso   1.000  H
  C625     1.0000 0.00330  0.34750  0.89170  Biso   1.000  C
  C626     1.0000 0.96230  0.31580  0.89910  Biso   1.000  C
  H435     1.0000 0.93330  0.31130  0.88050  Biso   1.000  H
  C627     1.0000 0.96160  0.29030  0.93230  Biso   1.000  C
  H436     1.0000 0.93300  0.26800  0.93600  Biso   1.000  H
  C628     1.0000 0.00210  0.37690  0.85630  Biso   1.000  C
  C629     1.0000 0.05130  0.39260  0.83890  Biso   1.000  C
  H437     1.0000 0.08710  0.38280  0.84810  Biso   1.000  H
  C630     1.0000 0.04790  0.42240  0.80790  Biso   1.000  C
  H438     1.0000 0.08220  0.43250  0.79640  Biso   1.000  H
  C631     1.0000 0.95340  0.42260  0.80960  Biso   1.000  C
  H439     1.0000 0.91820  0.43320  0.79990  Biso   1.000  H
  C632     1.0000 0.95240  0.39200  0.84040  Biso   1.000  C
  H440     1.0000 0.91730  0.38150  0.85040  Biso   1.000  H
  N55      1.0000 0.99960  0.43790  0.79307  Biso   1.000  N
  C633     1.0000 0.00300  0.77230  0.49850  Biso   1.000  C
  C634     1.0000 0.00210  0.79690  0.46050  Biso   1.000  C
  C635     1.0000 0.04430  0.82900  0.45340  Biso   1.000  C
  H441     1.0000 0.07240  0.83430  0.47250  Biso   1.000  H
  C636     1.0000 0.04600  0.85320  0.41930  Biso   1.000  C
  H442     1.0000 0.07630  0.87370  0.41450  Biso   1.000  H
  C637     1.0000 0.00330  0.84750  0.39170  Biso   1.000  C
  C638     1.0000 0.96230  0.81580  0.39910  Biso   1.000  C
  H443     1.0000 0.93330  0.81130  0.38050  Biso   1.000  H
  C639     1.0000 0.96160  0.79030  0.43230  Biso   1.000  C
  H444     1.0000 0.93300  0.76800  0.43600  Biso   1.000  H
  C640     1.0000 0.00210  0.87690  0.35630  Biso   1.000  C
  C641     1.0000 0.05130  0.89260  0.33890  Biso   1.000  C
  H445     1.0000 0.08710  0.88280  0.34810  Biso   1.000  H
  C642     1.0000 0.04790  0.92240  0.30790  Biso   1.000  C
  H446     1.0000 0.08220  0.93250  0.29640  Biso   1.000  H
  C643     1.0000 0.95340  0.92260  0.30960  Biso   1.000  C
  H447     1.0000 0.91820  0.93320  0.29990  Biso   1.000  H
  C644     1.0000 0.95240  0.89200  0.34040  Biso   1.000  C
  H448     1.0000 0.91730  0.88150  0.35040  Biso   1.000  H
  N56      1.0000 0.99960  0.93790  0.29307  Biso   1.000  N
  Cl17     1.0000 0.10582  0.50000  0.25000  Biso   1.000  Cl
  Cl18     1.0000 0.89861  0.50000  0.25000  Biso   1.000  Cl
  Cu9      1.0000 0.00226  0.50000  0.25000  Biso   1.000  Cu
  Cl19     1.0000 0.10582  0.00000  0.75000  Biso   1.000  Cl
  Cl20     1.0000 0.89861  0.00000  0.75000  Biso   1.000  Cl
  Cu10     1.0000 0.00226  0.00000  0.75000  Biso   1.000  Cu
  C645     1.0000 0.99700  0.27230  0.49850  Biso   1.000  C
  C646     1.0000 0.99790  0.29690  0.46050  Biso   1.000  C
  C647     1.0000 0.95570  0.32900  0.45340  Biso   1.000  C
  H449     1.0000 0.92760  0.33430  0.47250  Biso   1.000  H
  C648     1.0000 0.95400  0.35320  0.41930  Biso   1.000  C
  H450     1.0000 0.92370  0.37370  0.41450  Biso   1.000  H
  C649     1.0000 0.99670  0.34750  0.39170  Biso   1.000  C
  C650     1.0000 0.03770  0.31580  0.39910  Biso   1.000  C
  H451     1.0000 0.06670  0.31130  0.38050  Biso   1.000  H
  C651     1.0000 0.03840  0.29030  0.43230  Biso   1.000  C
  H452     1.0000 0.06700  0.26800  0.43600  Biso   1.000  H
  C652     1.0000 0.99790  0.37690  0.35630  Biso   1.000  C
  C653     1.0000 0.94870  0.39260  0.33890  Biso   1.000  C
  H453     1.0000 0.91290  0.38280  0.34810  Biso   1.000  H
  C654     1.0000 0.95210  0.42240  0.30790  Biso   1.000  C
  H454     1.0000 0.91780  0.43250  0.29640  Biso   1.000  H
  C655     1.0000 0.04660  0.42260  0.30960  Biso   1.000  C
  H455     1.0000 0.08180  0.43320  0.29990  Biso   1.000  H
  C656     1.0000 0.04760  0.39200  0.34040  Biso   1.000  C
  H456     1.0000 0.08270  0.38150  0.35040  Biso   1.000  H
  N57      1.0000 0.00040  0.43790  0.29307  Biso   1.000  N
  C657     1.0000 0.99700  0.77230  0.99850  Biso   1.000  C
  C658     1.0000 0.99790  0.79690  0.96050  Biso   1.000  C
  C659     1.0000 0.95570  0.82900  0.95340  Biso   1.000  C
  H457     1.0000 0.92760  0.83430  0.97250  Biso   1.000  H
  C660     1.0000 0.95400  0.85320  0.91930  Biso   1.000  C
  H458     1.0000 0.92370  0.87370  0.91450  Biso   1.000  H
  C661     1.0000 0.99670  0.84750  0.89170  Biso   1.000  C
  C662     1.0000 0.03770  0.81580  0.89910  Biso   1.000  C
  H459     1.0000 0.06670  0.81130  0.88050  Biso   1.000  H
  C663     1.0000 0.03840  0.79030  0.93230  Biso   1.000  C
  H460     1.0000 0.06700  0.76800  0.93600  Biso   1.000  H
  C664     1.0000 0.99790  0.87690  0.85630  Biso   1.000  C
  C665     1.0000 0.94870  0.89260  0.83890  Biso   1.000  C
  H461     1.0000 0.91290  0.88280  0.84810  Biso   1.000  H
  C666     1.0000 0.95210  0.92240  0.80790  Biso   1.000  C
  H462     1.0000 0.91780  0.93250  0.79640  Biso   1.000  H
  C667     1.0000 0.04660  0.92260  0.80960  Biso   1.000  C
  H463     1.0000 0.08180  0.93320  0.79990  Biso   1.000  H
  C668     1.0000 0.04760  0.89200  0.84040  Biso   1.000  C
  H464     1.0000 0.08270  0.88150  0.85040  Biso   1.000  H
  N58      1.0000 0.00040  0.93790  0.79307  Biso   1.000  N
  C669     1.0000 0.99700  0.72770  0.00150  Biso   1.000  C
  C670     1.0000 0.99790  0.70310  0.03950  Biso   1.000  C
  C671     1.0000 0.95570  0.67100  0.04660  Biso   1.000  C
  H465     1.0000 0.92760  0.66570  0.02750  Biso   1.000  H
  C672     1.0000 0.95400  0.64680  0.08070  Biso   1.000  C
  H466     1.0000 0.92370  0.62630  0.08550  Biso   1.000  H
  C673     1.0000 0.99670  0.65250  0.10830  Biso   1.000  C
  C674     1.0000 0.03770  0.68420  0.10090  Biso   1.000  C
  H467     1.0000 0.06670  0.68870  0.11950  Biso   1.000  H
  C675     1.0000 0.03840  0.70970  0.06770  Biso   1.000  C
  H468     1.0000 0.06700  0.73200  0.06400  Biso   1.000  H
  C676     1.0000 0.99790  0.62310  0.14370  Biso   1.000  C
  C677     1.0000 0.94870  0.60740  0.16110  Biso   1.000  C
  H469     1.0000 0.91290  0.61720  0.15190  Biso   1.000  H
  C678     1.0000 0.95210  0.57760  0.19210  Biso   1.000  C
  H470     1.0000 0.91780  0.56750  0.20360  Biso   1.000  H
  C679     1.0000 0.04660  0.57740  0.19040  Biso   1.000  C
  H471     1.0000 0.08180  0.56680  0.20010  Biso   1.000  H
  C680     1.0000 0.04760  0.60800  0.15960  Biso   1.000  C
  H472     1.0000 0.08270  0.61850  0.14960  Biso   1.000  H
  N59      1.0000 0.00040  0.56210  0.20693  Biso   1.000  N
  C681     1.0000 0.99700  0.22770  0.50150  Biso   1.000  C
  C682     1.0000 0.99790  0.20310  0.53950  Biso   1.000  C
  C683     1.0000 0.95570  0.17100  0.54660  Biso   1.000  C
  H473     1.0000 0.92760  0.16570  0.52750  Biso   1.000  H
  C684     1.0000 0.95400  0.14680  0.58070  Biso   1.000  C
  H474     1.0000 0.92370  0.12630  0.58550  Biso   1.000  H
  C685     1.0000 0.99670  0.15250  0.60830  Biso   1.000  C
  C686     1.0000 0.03770  0.18420  0.60090  Biso   1.000  C
  H475     1.0000 0.06670  0.18870  0.61950  Biso   1.000  H
  C687     1.0000 0.03840  0.20970  0.56770  Biso   1.000  C
  H476     1.0000 0.06700  0.23200  0.56400  Biso   1.000  H
  C688     1.0000 0.99790  0.12310  0.64370  Biso   1.000  C
  C689     1.0000 0.94870  0.10740  0.66110  Biso   1.000  C
  H477     1.0000 0.91290  0.11720  0.65190  Biso   1.000  H
  C690     1.0000 0.95210  0.07760  0.69210  Biso   1.000  C
  H478     1.0000 0.91780  0.06750  0.70360  Biso   1.000  H
  C691     1.0000 0.04660  0.07740  0.69040  Biso   1.000  C
  H479     1.0000 0.08180  0.06680  0.70010  Biso   1.000  H
  C692     1.0000 0.04760  0.10800  0.65960  Biso   1.000  C
  H480     1.0000 0.08270  0.11850  0.64960  Biso   1.000  H
  N60      1.0000 0.00040  0.06210  0.70693  Biso   1.000  N
  C693     1.0000 0.03830  0.55110  0.82780  Biso   1.000  C
  H481     1.0000 0.07160  0.53440  0.82190  Biso   1.000  H
  C694     1.0000 0.03840  0.57760  0.86060  Biso   1.000  C
  H482     1.0000 0.07040  0.57730  0.87710  Biso   1.000  H
  C695     1.0000 0.99330  0.60430  0.86970  Biso   1.000  C
  C696     1.0000 0.94840  0.59970  0.84560  Biso   1.000  C
  H483     1.0000 0.91460  0.61600  0.85110  Biso   1.000  H
  C697     1.0000 0.95080  0.57210  0.81360  Biso   1.000  C
  H484     1.0000 0.91850  0.57060  0.79730  Biso   1.000  H
  C698     1.0000 0.99320  0.63550  0.90370  Biso   1.000  C
  C699     1.0000 0.03380  0.63270  0.93300  Biso   1.000  C
  H485     1.0000 0.06170  0.60940  0.93170  Biso   1.000  H
  C700     1.0000 0.03440  0.66210  0.96330  Biso   1.000  C
  H486     1.0000 0.06260  0.65900  0.98280  Biso   1.000  H
  C701     1.0000 0.99460  0.69680  0.96640  Biso   1.000  C
  C702     1.0000 0.95470  0.70000  0.93770  Biso   1.000  C
  H487     1.0000 0.92710  0.72340  0.93910  Biso   1.000  H
  C703     1.0000 0.95350  0.67050  0.90710  Biso   1.000  C
  H488     1.0000 0.92520  0.67390  0.88780  Biso   1.000  H
  N61      1.0000 0.99570  0.54730  0.80414  Biso   1.000  N
  C704     1.0000 0.03830  0.05110  0.32780  Biso   1.000  C
  H489     1.0000 0.07160  0.03440  0.32190  Biso   1.000  H
  C705     1.0000 0.03840  0.07760  0.36060  Biso   1.000  C
  H490     1.0000 0.07040  0.07730  0.37710  Biso   1.000  H
  C706     1.0000 0.99330  0.10430  0.36970  Biso   1.000  C
  C707     1.0000 0.94840  0.09970  0.34560  Biso   1.000  C
  H491     1.0000 0.91460  0.11600  0.35110  Biso   1.000  H
  C708     1.0000 0.95080  0.07210  0.31360  Biso   1.000  C
  H492     1.0000 0.91850  0.07060  0.29730  Biso   1.000  H
  C709     1.0000 0.99320  0.13550  0.40370  Biso   1.000  C
  C710     1.0000 0.03380  0.13270  0.43300  Biso   1.000  C
  H493     1.0000 0.06170  0.10940  0.43170  Biso   1.000  H
  C711     1.0000 0.03440  0.16210  0.46330  Biso   1.000  C
  H494     1.0000 0.06260  0.15900  0.48280  Biso   1.000  H
  C712     1.0000 0.99460  0.19680  0.46640  Biso   1.000  C
  C713     1.0000 0.95470  0.20000  0.43770  Biso   1.000  C
  H495     1.0000 0.92710  0.22340  0.43910  Biso   1.000  H
  C714     1.0000 0.95350  0.17050  0.40710  Biso   1.000  C
  H496     1.0000 0.92520  0.17390  0.38780  Biso   1.000  H
  N62      1.0000 0.99570  0.04730  0.30414  Biso   1.000  N
  C715     1.0000 0.03830  0.44890  0.67220  Biso   1.000  C
  H497     1.0000 0.07160  0.46560  0.67810  Biso   1.000  H
  C716     1.0000 0.03840  0.42240  0.63940  Biso   1.000  C
  H498     1.0000 0.07040  0.42270  0.62290  Biso   1.000  H
  C717     1.0000 0.99330  0.39570  0.63030  Biso   1.000  C
  C718     1.0000 0.94840  0.40030  0.65440  Biso   1.000  C
  H499     1.0000 0.91460  0.38400  0.64890  Biso   1.000  H
  C719     1.0000 0.95080  0.42790  0.68640  Biso   1.000  C
  H500     1.0000 0.91850  0.42940  0.70270  Biso   1.000  H
  C720     1.0000 0.99320  0.36450  0.59630  Biso   1.000  C
  C721     1.0000 0.03380  0.36730  0.56700  Biso   1.000  C
  H501     1.0000 0.06170  0.39060  0.56830  Biso   1.000  H
  C722     1.0000 0.03440  0.33790  0.53670  Biso   1.000  C
  H502     1.0000 0.06260  0.34100  0.51720  Biso   1.000  H
  C723     1.0000 0.99460  0.30320  0.53360  Biso   1.000  C
  C724     1.0000 0.95470  0.30000  0.56230  Biso   1.000  C
  H503     1.0000 0.92710  0.27660  0.56090  Biso   1.000  H
  C725     1.0000 0.95350  0.32950  0.59290  Biso   1.000  C
  H504     1.0000 0.92520  0.32610  0.61220  Biso   1.000  H
  N63      1.0000 0.99570  0.45270  0.69586  Biso   1.000  N
  C726     1.0000 0.03830  0.94890  0.17220  Biso   1.000  C
  H505     1.0000 0.07160  0.96560  0.17810  Biso   1.000  H
  C727     1.0000 0.03840  0.92240  0.13940  Biso   1.000  C
  H506     1.0000 0.07040  0.92270  0.12290  Biso   1.000  H
  C728     1.0000 0.99330  0.89570  0.13030  Biso   1.000  C
  C729     1.0000 0.94840  0.90030  0.15440  Biso   1.000  C
  H507     1.0000 0.91460  0.88400  0.14890  Biso   1.000  H
  C730     1.0000 0.95080  0.92790  0.18640  Biso   1.000  C
  H508     1.0000 0.91850  0.92940  0.20270  Biso   1.000  H
  C731     1.0000 0.99320  0.86450  0.09630  Biso   1.000  C
  C732     1.0000 0.03380  0.86730  0.06700  Biso   1.000  C
  H509     1.0000 0.06170  0.89060  0.06830  Biso   1.000  H
  C733     1.0000 0.03440  0.83790  0.03670  Biso   1.000  C
  H510     1.0000 0.06260  0.84100  0.01720  Biso   1.000  H
  C734     1.0000 0.99460  0.80320  0.03360  Biso   1.000  C
  C735     1.0000 0.95470  0.80000  0.06230  Biso   1.000  C
  H511     1.0000 0.92710  0.77660  0.06090  Biso   1.000  H
  C736     1.0000 0.95350  0.82950  0.09290  Biso   1.000  C
  H512     1.0000 0.92520  0.82610  0.11220  Biso   1.000  H
  N64      1.0000 0.99570  0.95270  0.19586  Biso   1.000  N
  Cl21     1.0000 0.89418  0.50000  0.75000  Biso   1.000  Cl
  Cl22     1.0000 0.10139  0.50000  0.75000  Biso   1.000  Cl
  Cu11     1.0000 0.99774  0.50000  0.75000  Biso   1.000  Cu
  Cl23     1.0000 0.89418  0.00000  0.25000  Biso   1.000  Cl
  Cl24     1.0000 0.10139  0.00000  0.25000  Biso   1.000  Cl
  Cu12     1.0000 0.99774  0.00000  0.25000  Biso   1.000  Cu
