data_image0
_cell_length_a       33.227
_cell_length_b       33.227
_cell_length_c       24.546
_cell_angle_alpha    90
_cell_angle_beta     90
_cell_angle_gamma    90

_symmetry_space_group_name_H-M    "P 1"
_symmetry_int_tables_number       1

loop_
  _symmetry_equiv_pos_as_xyz
  'x, y, z'

loop_
  _atom_site_label
  _atom_site_occupancy
  _atom_site_fract_x
  _atom_site_fract_y
  _atom_site_fract_z
  _atom_site_thermal_displace_type
  _atom_site_B_iso_or_equiv
  _atom_site_type_symbol
  Cu1      1.0000 0.26267  0.46817  0.92209  Biso   1.000  Cu
  Cu2      1.0000 0.25995  0.54589  0.94255  Biso   1.000  Cu
  Cu3      1.0000 0.19931  0.68442  0.36298  Biso   1.000  Cu
  Cu4      1.0000 0.21557  0.70396  0.26124  Biso   1.000  Cu
  Cu5      1.0000 0.97931  0.74953  0.91538  Biso   1.000  Cu
  Cu6      1.0000 0.05601  0.74438  0.94081  Biso   1.000  Cu
  C1       1.0000 0.18370  0.50420  0.93460  Biso   1.000  C
  C2       1.0000 0.13910  0.50490  0.93000  Biso   1.000  C
  H1       1.0000 0.12930  0.47690  0.93670  Biso   1.000  H
  C3       1.0000 0.12730  0.51610  0.87210  Biso   1.000  C
  H2       1.0000 0.09800  0.51470  0.86840  Biso   1.000  H
  H3       1.0000 0.13990  0.49730  0.84650  Biso   1.000  H
  H4       1.0000 0.13650  0.54350  0.86420  Biso   1.000  H
  C4       1.0000 0.12050  0.52160  0.02170  Biso   1.000  C
  C5       1.0000 0.10270  0.55130  0.06150  Biso   1.000  C
  C6       1.0000 0.11900  0.55360  0.11460  Biso   1.000  C
  H5       1.0000 0.14140  0.53740  0.12460  Biso   1.000  H
  C7       1.0000 0.10240  0.57910  0.15080  Biso   1.000  C
  C8       1.0000 0.07080  0.60660  0.13730  Biso   1.000  C
  H6       1.0000 0.06100  0.62600  0.16250  Biso   1.000  H
  C9       1.0000 0.05520  0.60330  0.08410  Biso   1.000  C
  C10      1.0000 0.07120  0.57710  0.04750  Biso   1.000  C
  H7       1.0000 0.06070  0.57630  0.01160  Biso   1.000  H
  C11      1.0000 0.11850  0.58210  0.20930  Biso   1.000  C
  C12      1.0000 0.21810  0.55450  0.26080  Biso   1.000  C
  H8       1.0000 0.21080  0.52650  0.25310  Biso   1.000  H
  H9       1.0000 0.23290  0.55580  0.29520  Biso   1.000  H
  H10      1.0000 0.23510  0.56480  0.23130  Biso   1.000  H
  C13      1.0000 0.17950  0.58030  0.26500  Biso   1.000  C
  H11      1.0000 0.16150  0.56880  0.29370  Biso   1.000  H
  C14      1.0000 0.19130  0.62270  0.28070  Biso   1.000  C
  C15      1.0000 0.02050  0.62960  0.06540  Biso   1.000  C
  C16      1.0000 0.98080  0.72600  0.11330  Biso   1.000  C
  H12      1.0000 0.97310  0.71310  0.14770  Biso   1.000  H
  H13      1.0000 0.95920  0.74400  0.10140  Biso   1.000  H
  H14      1.0000 0.00550  0.74150  0.11860  Biso   1.000  H
  C17      1.0000 0.98780  0.69400  0.07050  Biso   1.000  C
  H15      1.0000 0.96190  0.67890  0.06620  Biso   1.000  H
  C18      1.0000 0.99760  0.71230  0.01580  Biso   1.000  C
  C19      1.0000 0.26440  0.49120  0.03350  Biso   1.000  C
  C20      1.0000 0.26200  0.48300  0.09420  Biso   1.000  C
  H16      1.0000 0.27350  0.45570  0.10170  Biso   1.000  H
  C21      1.0000 0.21960  0.48350  0.11160  Biso   1.000  C
  H17      1.0000 0.21710  0.47010  0.14690  Biso   1.000  H
  H18      1.0000 0.20320  0.46930  0.08450  Biso   1.000  H
  H19      1.0000 0.21040  0.51140  0.11470  Biso   1.000  H
  C22      1.0000 0.32560  0.51020  0.12790  Biso   1.000  C
  C23      1.0000 0.34610  0.54440  0.15650  Biso   1.000  C
  C24      1.0000 0.38230  0.55730  0.13720  Biso   1.000  C
  H20      1.0000 0.39280  0.54560  0.10490  Biso   1.000  H
  C25      1.0000 0.40450  0.58730  0.16360  Biso   1.000  C
  C26      1.0000 0.38720  0.60550  0.20940  Biso   1.000  C
  H21      1.0000 0.40110  0.62670  0.22720  Biso   1.000  H
  C27      1.0000 0.35000  0.59320  0.22940  Biso   1.000  C
  C28      1.0000 0.33090  0.56200  0.20360  Biso   1.000  C
  H22      1.0000 0.30640  0.55210  0.21830  Biso   1.000  H
  C29      1.0000 0.44490  0.60260  0.14230  Biso   1.000  C
  C30      1.0000 0.49680  0.60180  0.00950  Biso   1.000  C
  H23      1.0000 0.48120  0.57740  0.00180  Biso   1.000  H
  H24      1.0000 0.52550  0.59610  0.00510  Biso   1.000  H
  H25      1.0000 0.48880  0.62320  0.98420  Biso   1.000  H
  C31      1.0000 0.48830  0.61600  0.07040  Biso   1.000  C
  H26      1.0000 0.51040  0.60590  0.09440  Biso   1.000  H
  C32      1.0000 0.48910  0.66480  0.07000  Biso   1.000  C
  C33      1.0000 0.33250  0.61070  0.28020  Biso   1.000  C
  C34      1.0000 0.34530  0.70660  0.34980  Biso   1.000  C
  H27      1.0000 0.37190  0.70080  0.36520  Biso   1.000  H
  H28      1.0000 0.32960  0.72230  0.37610  Biso   1.000  H
  H29      1.0000 0.34840  0.72200  0.31610  Biso   1.000  H
  C35      1.0000 0.32420  0.66830  0.33810  Biso   1.000  C
  H30      1.0000 0.32700  0.65060  0.37080  Biso   1.000  H
  C36      1.0000 0.27920  0.67460  0.32790  Biso   1.000  C
  C37      1.0000 0.13586  0.71080  0.29580  Biso   1.000  C
  C38      1.0000 0.08840  0.71730  0.28340  Biso   1.000  C
  H31      1.0000 0.07370  0.72290  0.31810  Biso   1.000  H
  C39      1.0000 0.07400  0.67860  0.25940  Biso   1.000  C
  H32      1.0000 0.04610  0.68160  0.24740  Biso   1.000  H
  H33      1.0000 0.07570  0.65720  0.28680  Biso   1.000  H
  H34      1.0000 0.09090  0.67150  0.22810  Biso   1.000  H
  C40      1.0000 0.09340  0.78710  0.26020  Biso   1.000  C
  C41      1.0000 0.08980  0.82010  0.21920  Biso   1.000  C
  C42      1.0000 0.11450  0.85230  0.22330  Biso   1.000  C
  H35      1.0000 0.13350  0.85370  0.25210  Biso   1.000  H
  C43      1.0000 0.11220  0.88350  0.18570  Biso   1.000  C
  C44      1.0000 0.08400  0.88010  0.14270  Biso   1.000  C
  H36      1.0000 0.08210  0.90100  0.11630  Biso   1.000  H
  C45      1.0000 0.05960  0.84760  0.13860  Biso   1.000  C
  C46      1.0000 0.06190  0.81680  0.17610  Biso   1.000  C
  H37      1.0000 0.04510  0.79380  0.17290  Biso   1.000  H
  C47      1.0000 0.13620  0.92220  0.18880  Biso   1.000  C
  C48      1.0000 0.23200  0.94420  0.25460  Biso   1.000  C
  H38      1.0000 0.22070  0.93890  0.29080  Biso   1.000  H
  H39      1.0000 0.25020  0.96730  0.25650  Biso   1.000  H
  H40      1.0000 0.24690  0.92050  0.24210  Biso   1.000  H
  C49      1.0000 0.19870  0.95300  0.21560  Biso   1.000  C
  H41      1.0000 0.18290  0.97650  0.22930  Biso   1.000  H
  C50      1.0000 0.21720  0.96390  0.15860  Biso   1.000  C
  C51      1.0000 0.02920  0.84360  0.09190  Biso   1.000  C
  C52      1.0000 0.02550  0.88480  0.95370  Biso   1.000  C
  H42      1.0000 0.02430  0.91270  0.96650  Biso   1.000  H
  H43      1.0000 0.00720  0.88140  0.92280  Biso   1.000  H
  H44      1.0000 0.05310  0.87840  0.94230  Biso   1.000  H
  C53      1.0000 0.01310  0.85650  0.99960  Biso   1.000  C
  H45      1.0000 0.98480  0.86290  0.01060  Biso   1.000  H
  C54      1.0000 0.01410  0.81440  0.97480  Biso   1.000  C
  C55      1.0000 0.02040  0.68060  0.87900  Biso   1.000  C
  C56      1.0000 0.02350  0.63990  0.85140  Biso   1.000  C
  H46      1.0000 0.00110  0.63700  0.82440  Biso   1.000  H
  C57      1.0000 0.01950  0.60560  0.89610  Biso   1.000  C
  H47      1.0000 0.03750  0.58330  0.88700  Biso   1.000  H
  H48      1.0000 0.99160  0.59590  0.89720  Biso   1.000  H
  H49      1.0000 0.02680  0.61650  0.93190  Biso   1.000  H
  C58      1.0000 0.06970  0.64760  0.77600  Biso   1.000  C
  C59      1.0000 0.11120  0.64100  0.75370  Biso   1.000  C
  C60      1.0000 0.12660  0.67060  0.71900  Biso   1.000  C
  H50      1.0000 0.11100  0.69370  0.71090  Biso   1.000  H
  C61      1.0000 0.16450  0.66620  0.69640  Biso   1.000  C
  C62      1.0000 0.18760  0.63118  0.70810  Biso   1.000  C
  H51      1.0000 0.21370  0.62760  0.69330  Biso   1.000  H
  C63      1.0000 0.17040  0.60240  0.74170  Biso   1.000  C
  C64      1.0000 0.13280  0.60770  0.76410  Biso   1.000  C
  H52      1.0000 0.12200  0.58750  0.78730  Biso   1.000  H
  C65      1.0000 0.18170  0.69780  0.66060  Biso   1.000  C
  C66      1.0000 0.16670  0.80490  0.64420  Biso   1.000  C
  H53      1.0000 0.13910  0.79900  0.63240  Biso   1.000  H
  H54      1.0000 0.17800  0.82630  0.62130  Biso   1.000  H
  H55      1.0000 0.16640  0.81380  0.68230  Biso   1.000  H
  C67      1.0000 0.19200  0.76780  0.63900  Biso   1.000  C
  H56      1.0000 0.19250  0.75940  0.59990  Biso   1.000  H
  C68      1.0000 0.23480  0.77730  0.65690  Biso   1.000  C
  C69      1.0000 0.19270  0.56290  0.75360  Biso   1.000  C
  C70      1.0000 0.29760  0.53230  0.74880  Biso   1.000  C
  H57      1.0000 0.29650  0.53780  0.70960  Biso   1.000  H
  H58      1.0000 0.31230  0.50720  0.75520  Biso   1.000  H
  H59      1.0000 0.31150  0.55450  0.76720  Biso   1.000  H
  C71      1.0000 0.25638  0.52869  0.77040  Biso   1.000  C
  H60      1.0000 0.24320  0.50500  0.75290  Biso   1.000  H
  C72      1.0000 0.25730  0.52180  0.83180  Biso   1.000  C
  N1       1.0000 0.12060  0.53030  0.96980  Biso   1.000  N
  H61      1.0000 0.13300  0.55500  0.96660  Biso   1.000  H
  N2       1.0000 0.15900  0.57928  0.21300  Biso   1.000  N
  H62      1.0000 0.16920  0.60030  0.19280  Biso   1.000  H
  N3       1.0000 0.01787  0.66525  0.08850  Biso   1.000  N
  H63      1.0000 0.04250  0.67750  0.08400  Biso   1.000  H
  N4       1.0000 0.28500  0.51264  0.12410  Biso   1.000  N
  H64      1.0000 0.27930  0.53720  0.10850  Biso   1.000  H
  N5       1.0000 0.45130  0.60090  0.08980  Biso   1.000  N
  H65      1.0000 0.43120  0.61530  0.07300  Biso   1.000  H
  N6       1.0000 0.34235  0.64741  0.29220  Biso   1.000  N
  H66      1.0000 0.33690  0.66260  0.26180  Biso   1.000  H
  N7       1.0000 0.08367  0.75002  0.24680  Biso   1.000  N
  H67      1.0000 0.09850  0.74370  0.21630  Biso   1.000  H
  N8       1.0000 0.17280  0.91860  0.21160  Biso   1.000  N
  H68      1.0000 0.18650  0.89930  0.19210  Biso   1.000  H
  N9       1.0000 0.03880  0.86210  0.04540  Biso   1.000  N
  H69      1.0000 0.06390  0.85290  0.03560  Biso   1.000  H
  N10      1.0000 0.06140  0.63222  0.82470  Biso   1.000  N
  H70      1.0000 0.08110  0.64130  0.84800  Biso   1.000  H
  N11      1.0000 0.17439  0.73595  0.67040  Biso   1.000  N
  H71      1.0000 0.18180  0.74040  0.70600  Biso   1.000  H
  N12      1.0000 0.23349  0.56472  0.75640  Biso   1.000  N
  H72      1.0000 0.23970  0.58400  0.78190  Biso   1.000  H
  O1       1.0000 0.20351  0.47279  0.91957  Biso   1.000  O
  O2       1.0000 0.20129  0.53579  0.95080  Biso   1.000  O
  O3       1.0000 0.13490  0.48921  0.03940  Biso   1.000  O
  O4       1.0000 0.19537  0.62878  0.33242  Biso   1.000  O
  O5       1.0000 0.19648  0.64862  0.24495  Biso   1.000  O
  O6       1.0000 0.09770  0.58570  0.24850  Biso   1.000  O
  O7       1.0000 0.96903  0.72598  0.98760  Biso   1.000  O
  O8       1.0000 0.03465  0.71352  0.00274  Biso   1.000  O
  O9       1.0000 0.99669  0.61806  0.03210  Biso   1.000  O
  O10      1.0000 0.25886  0.46191  0.00180  Biso   1.000  O
  O11      1.0000 0.26836  0.52755  0.01814  Biso   1.000  O
  O12      1.0000 0.34400  0.48280  0.10670  Biso   1.000  O
  O13      1.0000 0.52394  0.67818  0.07150  Biso   1.000  O
  O14      1.0000 0.45735  0.68157  0.06940  Biso   1.000  O
  O15      1.0000 0.46990  0.61350  0.17690  Biso   1.000  O
  O16      1.0000 0.25716  0.67742  0.36990  Biso   1.000  O
  O17      1.0000 0.26833  0.68174  0.27982  Biso   1.000  O
  O18      1.0000 0.30946  0.59093  0.30780  Biso   1.000  O
  O19      1.0000 0.14348  0.69365  0.33980  Biso   1.000  O
  O20      1.0000 0.15925  0.72167  0.26040  Biso   1.000  O
  O21      1.0000 0.10626  0.79614  0.30763  Biso   1.000  O
  O22      1.0000 0.22695  0.00035  0.15264  Biso   1.000  O
  O23      1.0000 0.22225  0.93550  0.12581  Biso   1.000  O
  O24      1.0000 0.12400  0.95344  0.17220  Biso   1.000  O
  O25      1.0000 0.98312  0.80321  0.94880  Biso   1.000  O
  O26      1.0000 0.04549  0.79435  0.98080  Biso   1.000  O
  O27      1.0000 0.99890  0.82467  0.09900  Biso   1.000  O
  O28      1.0000 0.98593  0.69447  0.88550  Biso   1.000  O
  O29      1.0000 0.05309  0.69649  0.89460  Biso   1.000  O
  O30      1.0000 0.04318  0.66645  0.74980  Biso   1.000  O
  O31      1.0000 0.25744  0.79431  0.62260  Biso   1.000  O
  O32      1.0000 0.24466  0.76879  0.70654  Biso   1.000  O
  O33      1.0000 0.20270  0.68705  0.62000  Biso   1.000  O
  O34      1.0000 0.26430  0.48490  0.84518  Biso   1.000  O
  O35      1.0000 0.25130  0.54981  0.86320  Biso   1.000  O
  O36      1.0000 0.17331  0.53111  0.75690  Biso   1.000  O
  Cu7      1.0000 0.53183  0.73733  0.07791  Biso   1.000  Cu
  Cu8      1.0000 0.45411  0.74005  0.05745  Biso   1.000  Cu
  Cu9      1.0000 0.31558  0.80069  0.63702  Biso   1.000  Cu
  Cu10     1.0000 0.29604  0.78443  0.73876  Biso   1.000  Cu
  Cu11     1.0000 0.25047  0.02069  0.08462  Biso   1.000  Cu
  Cu12     1.0000 0.25562  0.94399  0.05919  Biso   1.000  Cu
  C73      1.0000 0.49580  0.81630  0.06540  Biso   1.000  C
  C74      1.0000 0.49510  0.86090  0.07000  Biso   1.000  C
  H73      1.0000 0.52310  0.87070  0.06330  Biso   1.000  H
  C75      1.0000 0.48390  0.87270  0.12790  Biso   1.000  C
  H74      1.0000 0.48530  0.90200  0.13160  Biso   1.000  H
  H75      1.0000 0.50270  0.86010  0.15350  Biso   1.000  H
  H76      1.0000 0.45650  0.86350  0.13580  Biso   1.000  H
  C76      1.0000 0.47840  0.87950  0.97830  Biso   1.000  C
  C77      1.0000 0.44870  0.89730  0.93850  Biso   1.000  C
  C78      1.0000 0.44640  0.88100  0.88540  Biso   1.000  C
  H77      1.0000 0.46260  0.85860  0.87540  Biso   1.000  H
  C79      1.0000 0.42090  0.89760  0.84920  Biso   1.000  C
  C80      1.0000 0.39340  0.92920  0.86270  Biso   1.000  C
  H78      1.0000 0.37400  0.93900  0.83750  Biso   1.000  H
  C81      1.0000 0.39670  0.94480  0.91590  Biso   1.000  C
  C82      1.0000 0.42290  0.92880  0.95250  Biso   1.000  C
  H79      1.0000 0.42370  0.93930  0.98840  Biso   1.000  H
  C83      1.0000 0.41790  0.88150  0.79070  Biso   1.000  C
  C84      1.0000 0.44550  0.78190  0.73920  Biso   1.000  C
  H80      1.0000 0.47350  0.78920  0.74690  Biso   1.000  H
  H81      1.0000 0.44420  0.76710  0.70480  Biso   1.000  H
  H82      1.0000 0.43520  0.76490  0.76870  Biso   1.000  H
  C85      1.0000 0.41970  0.82050  0.73500  Biso   1.000  C
  H83      1.0000 0.43120  0.83850  0.70630  Biso   1.000  H
  C86      1.0000 0.37730  0.80870  0.71930  Biso   1.000  C
  C87      1.0000 0.37040  0.97950  0.93460  Biso   1.000  C
  C88      1.0000 0.27400  0.01920  0.88670  Biso   1.000  C
  H84      1.0000 0.28690  0.02690  0.85230  Biso   1.000  H
  H85      1.0000 0.25600  0.04080  0.89860  Biso   1.000  H
  H86      1.0000 0.25850  0.99450  0.88140  Biso   1.000  H
  C89      1.0000 0.30600  0.01220  0.92950  Biso   1.000  C
  H87      1.0000 0.32110  0.03810  0.93380  Biso   1.000  H
  C90      1.0000 0.28770  0.00240  0.98420  Biso   1.000  C
  C91      1.0000 0.50880  0.73560  0.96650  Biso   1.000  C
  C92      1.0000 0.51700  0.73800  0.90580  Biso   1.000  C
  H88      1.0000 0.54430  0.72650  0.89830  Biso   1.000  H
  C93      1.0000 0.51650  0.78040  0.88840  Biso   1.000  C
  H89      1.0000 0.52990  0.78290  0.85310  Biso   1.000  H
  H90      1.0000 0.53070  0.79680  0.91550  Biso   1.000  H
  H91      1.0000 0.48860  0.78960  0.88530  Biso   1.000  H
  C94      1.0000 0.48980  0.67440  0.87210  Biso   1.000  C
  C95      1.0000 0.45560  0.65390  0.84350  Biso   1.000  C
  C96      1.0000 0.44270  0.61770  0.86280  Biso   1.000  C
  H92      1.0000 0.45440  0.60720  0.89510  Biso   1.000  H
  C97      1.0000 0.41270  0.59550  0.83640  Biso   1.000  C
  C98      1.0000 0.39450  0.61280  0.79060  Biso   1.000  C
  H93      1.0000 0.37330  0.59890  0.77280  Biso   1.000  H
  C99      1.0000 0.40680  0.65000  0.77060  Biso   1.000  C
  C100     1.0000 0.43800  0.66910  0.79640  Biso   1.000  C
  H94      1.0000 0.44790  0.69360  0.78170  Biso   1.000  H
  C101     1.0000 0.39740  0.55510  0.85770  Biso   1.000  C
  C102     1.0000 0.39820  0.50320  0.99050  Biso   1.000  C
  H95      1.0000 0.42260  0.51880  0.99820  Biso   1.000  H
  H96      1.0000 0.40390  0.47450  0.99490  Biso   1.000  H
  H97      1.0000 0.37680  0.51120  0.01580  Biso   1.000  H
  C103     1.0000 0.38400  0.51170  0.92960  Biso   1.000  C
  H98      1.0000 0.39410  0.48960  0.90560  Biso   1.000  H
  C104     1.0000 0.33520  0.51090  0.93000  Biso   1.000  C
  C105     1.0000 0.38930  0.66750  0.71980  Biso   1.000  C
  C106     1.0000 0.29340  0.65470  0.65020  Biso   1.000  C
  H99      1.0000 0.29920  0.62810  0.63480  Biso   1.000  H
  H100     1.0000 0.27770  0.67040  0.62390  Biso   1.000  H
  H101     1.0000 0.27800  0.65160  0.68390  Biso   1.000  H
  C107     1.0000 0.33170  0.67580  0.66190  Biso   1.000  C
  H102     1.0000 0.34940  0.67300  0.62920  Biso   1.000  H
  C108     1.0000 0.32540  0.72080  0.67210  Biso   1.000  C
  C109     1.0000 0.28920  0.86414  0.70420  Biso   1.000  C
  C110     1.0000 0.28270  0.91160  0.71660  Biso   1.000  C
  H103     1.0000 0.27710  0.92630  0.68190  Biso   1.000  H
  C111     1.0000 0.32140  0.92600  0.74060  Biso   1.000  C
  H104     1.0000 0.31840  0.95390  0.75260  Biso   1.000  H
  H105     1.0000 0.34280  0.92430  0.71320  Biso   1.000  H
  H106     1.0000 0.32850  0.90910  0.77190  Biso   1.000  H
  C112     1.0000 0.21290  0.90660  0.73980  Biso   1.000  C
  C113     1.0000 0.17990  0.91020  0.78080  Biso   1.000  C
  C114     1.0000 0.14770  0.88550  0.77670  Biso   1.000  C
  H107     1.0000 0.14630  0.86650  0.74790  Biso   1.000  H
  C115     1.0000 0.11650  0.88780  0.81430  Biso   1.000  C
  C116     1.0000 0.11990  0.91600  0.85730  Biso   1.000  C
  H108     1.0000 0.09900  0.91790  0.88370  Biso   1.000  H
  C117     1.0000 0.15240  0.94040  0.86140  Biso   1.000  C
  C118     1.0000 0.18320  0.93810  0.82390  Biso   1.000  C
  H109     1.0000 0.20620  0.95490  0.82710  Biso   1.000  H
  C119     1.0000 0.07780  0.86380  0.81120  Biso   1.000  C
  C120     1.0000 0.05580  0.76800  0.74540  Biso   1.000  C
  H110     1.0000 0.06110  0.77930  0.70920  Biso   1.000  H
  H111     1.0000 0.03270  0.74980  0.74350  Biso   1.000  H
  H112     1.0000 0.07950  0.75310  0.75790  Biso   1.000  H
  C121     1.0000 0.04700  0.80130  0.78440  Biso   1.000  C
  H113     1.0000 0.02350  0.81710  0.77070  Biso   1.000  H
  C122     1.0000 0.03610  0.78280  0.84140  Biso   1.000  C
  C123     1.0000 0.15640  0.97080  0.90810  Biso   1.000  C
  C124     1.0000 0.11520  0.97450  0.04630  Biso   1.000  C
  H114     1.0000 0.08730  0.97570  0.03350  Biso   1.000  H
  H115     1.0000 0.11860  0.99280  0.07720  Biso   1.000  H
  H116     1.0000 0.12160  0.94690  0.05770  Biso   1.000  H
  C125     1.0000 0.14350  0.98690  0.00040  Biso   1.000  C
  H117     1.0000 0.13710  0.01520  0.98940  Biso   1.000  H
  C126     1.0000 0.18560  0.98590  0.02520  Biso   1.000  C
  C127     1.0000 0.31940  0.97960  0.12100  Biso   1.000  C
  C128     1.0000 0.36010  0.97650  0.14860  Biso   1.000  C
  H118     1.0000 0.36300  0.99890  0.17560  Biso   1.000  H
  C129     1.0000 0.39440  0.98050  0.10390  Biso   1.000  C
  H119     1.0000 0.41670  0.96250  0.11300  Biso   1.000  H
  H120     1.0000 0.40410  0.00840  0.10280  Biso   1.000  H
  H121     1.0000 0.38350  0.97320  0.06810  Biso   1.000  H
  C130     1.0000 0.35240  0.93030  0.22400  Biso   1.000  C
  C131     1.0000 0.35900  0.88880  0.24630  Biso   1.000  C
  C132     1.0000 0.32940  0.87340  0.28100  Biso   1.000  C
  H122     1.0000 0.30630  0.88900  0.28910  Biso   1.000  H
  C133     1.0000 0.33380  0.83550  0.30360  Biso   1.000  C
  C134     1.0000 0.36882  0.81240  0.29190  Biso   1.000  C
  H123     1.0000 0.37240  0.78630  0.30670  Biso   1.000  H
  C135     1.0000 0.39760  0.82960  0.25830  Biso   1.000  C
  C136     1.0000 0.39230  0.86720  0.23590  Biso   1.000  C
  H124     1.0000 0.41250  0.87800  0.21270  Biso   1.000  H
  C137     1.0000 0.30220  0.81830  0.33940  Biso   1.000  C
  C138     1.0000 0.19510  0.83330  0.35580  Biso   1.000  C
  H125     1.0000 0.20100  0.86090  0.36760  Biso   1.000  H
  H126     1.0000 0.17370  0.82200  0.37870  Biso   1.000  H
  H127     1.0000 0.18620  0.83360  0.31770  Biso   1.000  H
  C139     1.0000 0.23220  0.80800  0.36100  Biso   1.000  C
  H128     1.0000 0.24060  0.80750  0.40010  Biso   1.000  H
  C140     1.0000 0.22270  0.76520  0.34310  Biso   1.000  C
  C141     1.0000 0.43710  0.80730  0.24640  Biso   1.000  C
  C142     1.0000 0.46770  0.70240  0.25120  Biso   1.000  C
  H129     1.0000 0.46220  0.70350  0.29040  Biso   1.000  H
  H130     1.0000 0.49280  0.68770  0.24480  Biso   1.000  H
  H131     1.0000 0.44550  0.68850  0.23280  Biso   1.000  H
  C143     1.0000 0.47131  0.74362  0.22960  Biso   1.000  C
  H132     1.0000 0.49500  0.75680  0.24710  Biso   1.000  H
  C144     1.0000 0.47820  0.74270  0.16820  Biso   1.000  C
  N13      1.0000 0.46970  0.87940  0.03020  Biso   1.000  N
  H133     1.0000 0.44500  0.86700  0.03340  Biso   1.000  H
  N14      1.0000 0.42072  0.84100  0.78700  Biso   1.000  N
  H134     1.0000 0.39970  0.83080  0.80720  Biso   1.000  H
  N15      1.0000 0.33475  0.98213  0.91150  Biso   1.000  N
  H135     1.0000 0.32250  0.95750  0.91600  Biso   1.000  H
  N16      1.0000 0.48736  0.71500  0.87590  Biso   1.000  N
  H136     1.0000 0.46280  0.72070  0.89150  Biso   1.000  H
  N17      1.0000 0.39910  0.54870  0.91020  Biso   1.000  N
  H137     1.0000 0.38470  0.56880  0.92700  Biso   1.000  H
  N18      1.0000 0.35259  0.65765  0.70780  Biso   1.000  N
  H138     1.0000 0.33740  0.66310  0.73820  Biso   1.000  H
  N19      1.0000 0.24998  0.91633  0.75320  Biso   1.000  N
  H139     1.0000 0.25630  0.90150  0.78370  Biso   1.000  H
  N20      1.0000 0.08140  0.82720  0.78840  Biso   1.000  N
  H140     1.0000 0.10070  0.81350  0.80790  Biso   1.000  H
  N21      1.0000 0.13790  0.96120  0.95460  Biso   1.000  N
  H141     1.0000 0.14710  0.93610  0.96440  Biso   1.000  H
  N22      1.0000 0.36778  0.93860  0.17530  Biso   1.000  N
  H142     1.0000 0.35870  0.91890  0.15200  Biso   1.000  H
  N23      1.0000 0.26405  0.82561  0.32960  Biso   1.000  N
  H143     1.0000 0.25960  0.81820  0.29400  Biso   1.000  H
  N24      1.0000 0.43528  0.76651  0.24360  Biso   1.000  N
  H144     1.0000 0.41600  0.76030  0.21810  Biso   1.000  H
  O37      1.0000 0.52721  0.79649  0.08043  Biso   1.000  O
  O38      1.0000 0.46421  0.79871  0.04920  Biso   1.000  O
  O39      1.0000 0.51079  0.86510  0.96060  Biso   1.000  O
  O40      1.0000 0.37122  0.80463  0.66758  Biso   1.000  O
  O41      1.0000 0.35138  0.80352  0.75505  Biso   1.000  O
  O42      1.0000 0.41430  0.90230  0.75150  Biso   1.000  O
  O43      1.0000 0.27402  0.03097  0.01240  Biso   1.000  O
  O44      1.0000 0.28648  0.96535  0.99726  Biso   1.000  O
  O45      1.0000 0.38194  0.00331  0.96790  Biso   1.000  O
  O46      1.0000 0.53809  0.74114  0.99820  Biso   1.000  O
  O47      1.0000 0.47245  0.73164  0.98186  Biso   1.000  O
  O48      1.0000 0.51720  0.65600  0.89330  Biso   1.000  O
  O49      1.0000 0.32182  0.47606  0.92850  Biso   1.000  O
  O50      1.0000 0.31843  0.54265  0.93060  Biso   1.000  O
  O51      1.0000 0.38650  0.53010  0.82310  Biso   1.000  O
  O52      1.0000 0.32258  0.74284  0.63010  Biso   1.000  O
  O53      1.0000 0.31826  0.73167  0.72018  Biso   1.000  O
  O54      1.0000 0.40907  0.69054  0.69220  Biso   1.000  O
  O55      1.0000 0.30635  0.85652  0.66020  Biso   1.000  O
  O56      1.0000 0.27833  0.84075  0.73960  Biso   1.000  O
  O57      1.0000 0.20386  0.89374  0.69237  Biso   1.000  O
  O58      1.0000 0.99965  0.77305  0.84736  Biso   1.000  O
  O59      1.0000 0.06450  0.77775  0.87419  Biso   1.000  O
  O60      1.0000 0.04656  0.87600  0.82780  Biso   1.000  O
  O61      1.0000 0.19679  0.01688  0.05120  Biso   1.000  O
  O62      1.0000 0.20565  0.95451  0.01920  Biso   1.000  O
  O63      1.0000 0.17533  0.00110  0.90100  Biso   1.000  O
  O64      1.0000 0.30553  0.01407  0.11450  Biso   1.000  O
  O65      1.0000 0.30351  0.94691  0.10540  Biso   1.000  O
  O66      1.0000 0.33355  0.95682  0.25020  Biso   1.000  O
  O67      1.0000 0.20569  0.74256  0.37740  Biso   1.000  O
  O68      1.0000 0.23121  0.75534  0.29346  Biso   1.000  O
  O69      1.0000 0.31295  0.79730  0.38000  Biso   1.000  O
  O70      1.0000 0.51510  0.73570  0.15482  Biso   1.000  O
  O71      1.0000 0.45019  0.74870  0.13680  Biso   1.000  O
  O72      1.0000 0.46889  0.82669  0.24310  Biso   1.000  O
  Cu13     1.0000 0.73733  0.53183  0.92209  Biso   1.000  Cu
  Cu14     1.0000 0.74005  0.45411  0.94255  Biso   1.000  Cu
  Cu15     1.0000 0.80069  0.31558  0.36298  Biso   1.000  Cu
  Cu16     1.0000 0.78443  0.29604  0.26124  Biso   1.000  Cu
  Cu17     1.0000 0.02069  0.25047  0.91538  Biso   1.000  Cu
  Cu18     1.0000 0.94399  0.25562  0.94081  Biso   1.000  Cu
  C145     1.0000 0.81630  0.49580  0.93460  Biso   1.000  C
  C146     1.0000 0.86090  0.49510  0.93000  Biso   1.000  C
  H145     1.0000 0.87070  0.52310  0.93670  Biso   1.000  H
  C147     1.0000 0.87270  0.48390  0.87210  Biso   1.000  C
  H146     1.0000 0.90200  0.48530  0.86840  Biso   1.000  H
  H147     1.0000 0.86010  0.50270  0.84650  Biso   1.000  H
  H148     1.0000 0.86350  0.45650  0.86420  Biso   1.000  H
  C148     1.0000 0.87950  0.47840  0.02170  Biso   1.000  C
  C149     1.0000 0.89730  0.44870  0.06150  Biso   1.000  C
  C150     1.0000 0.88100  0.44640  0.11460  Biso   1.000  C
  H149     1.0000 0.85860  0.46260  0.12460  Biso   1.000  H
  C151     1.0000 0.89760  0.42090  0.15080  Biso   1.000  C
  C152     1.0000 0.92920  0.39340  0.13730  Biso   1.000  C
  H150     1.0000 0.93900  0.37400  0.16250  Biso   1.000  H
  C153     1.0000 0.94480  0.39670  0.08410  Biso   1.000  C
  C154     1.0000 0.92880  0.42290  0.04750  Biso   1.000  C
  H151     1.0000 0.93930  0.42370  0.01160  Biso   1.000  H
  C155     1.0000 0.88150  0.41790  0.20930  Biso   1.000  C
  C156     1.0000 0.78190  0.44550  0.26080  Biso   1.000  C
  H152     1.0000 0.78920  0.47350  0.25310  Biso   1.000  H
  H153     1.0000 0.76710  0.44420  0.29520  Biso   1.000  H
  H154     1.0000 0.76490  0.43520  0.23130  Biso   1.000  H
  C157     1.0000 0.82050  0.41970  0.26500  Biso   1.000  C
  H155     1.0000 0.83850  0.43120  0.29370  Biso   1.000  H
  C158     1.0000 0.80870  0.37730  0.28070  Biso   1.000  C
  C159     1.0000 0.97950  0.37040  0.06540  Biso   1.000  C
  C160     1.0000 0.01920  0.27400  0.11330  Biso   1.000  C
  H156     1.0000 0.02690  0.28690  0.14770  Biso   1.000  H
  H157     1.0000 0.04080  0.25600  0.10140  Biso   1.000  H
  H158     1.0000 0.99450  0.25850  0.11860  Biso   1.000  H
  C161     1.0000 0.01220  0.30600  0.07050  Biso   1.000  C
  H159     1.0000 0.03810  0.32110  0.06620  Biso   1.000  H
  C162     1.0000 0.00240  0.28770  0.01580  Biso   1.000  C
  C163     1.0000 0.73560  0.50880  0.03350  Biso   1.000  C
  C164     1.0000 0.73800  0.51700  0.09420  Biso   1.000  C
  H160     1.0000 0.72650  0.54430  0.10170  Biso   1.000  H
  C165     1.0000 0.78040  0.51650  0.11160  Biso   1.000  C
  H161     1.0000 0.78290  0.52990  0.14690  Biso   1.000  H
  H162     1.0000 0.79680  0.53070  0.08450  Biso   1.000  H
  H163     1.0000 0.78960  0.48860  0.11470  Biso   1.000  H
  C166     1.0000 0.67440  0.48980  0.12790  Biso   1.000  C
  C167     1.0000 0.65390  0.45560  0.15650  Biso   1.000  C
  C168     1.0000 0.61770  0.44270  0.13720  Biso   1.000  C
  H164     1.0000 0.60720  0.45440  0.10490  Biso   1.000  H
  C169     1.0000 0.59550  0.41270  0.16360  Biso   1.000  C
  C170     1.0000 0.61280  0.39450  0.20940  Biso   1.000  C
  H165     1.0000 0.59890  0.37330  0.22720  Biso   1.000  H
  C171     1.0000 0.65000  0.40680  0.22940  Biso   1.000  C
  C172     1.0000 0.66910  0.43800  0.20360  Biso   1.000  C
  H166     1.0000 0.69360  0.44790  0.21830  Biso   1.000  H
  C173     1.0000 0.55510  0.39740  0.14230  Biso   1.000  C
  C174     1.0000 0.50320  0.39820  0.00950  Biso   1.000  C
  H167     1.0000 0.51880  0.42260  0.00180  Biso   1.000  H
  H168     1.0000 0.47450  0.40390  0.00510  Biso   1.000  H
  H169     1.0000 0.51120  0.37680  0.98420  Biso   1.000  H
  C175     1.0000 0.51170  0.38400  0.07040  Biso   1.000  C
  H170     1.0000 0.48960  0.39410  0.09440  Biso   1.000  H
  C176     1.0000 0.51090  0.33520  0.07000  Biso   1.000  C
  C177     1.0000 0.66750  0.38930  0.28020  Biso   1.000  C
  C178     1.0000 0.65470  0.29340  0.34980  Biso   1.000  C
  H171     1.0000 0.62810  0.29920  0.36520  Biso   1.000  H
  H172     1.0000 0.67040  0.27770  0.37610  Biso   1.000  H
  H173     1.0000 0.65160  0.27800  0.31610  Biso   1.000  H
  C179     1.0000 0.67580  0.33170  0.33810  Biso   1.000  C
  H174     1.0000 0.67300  0.34940  0.37080  Biso   1.000  H
  C180     1.0000 0.72080  0.32540  0.32790  Biso   1.000  C
  C181     1.0000 0.86414  0.28920  0.29580  Biso   1.000  C
  C182     1.0000 0.91160  0.28270  0.28340  Biso   1.000  C
  H175     1.0000 0.92630  0.27710  0.31810  Biso   1.000  H
  C183     1.0000 0.92600  0.32140  0.25940  Biso   1.000  C
  H176     1.0000 0.95390  0.31840  0.24740  Biso   1.000  H
  H177     1.0000 0.92430  0.34280  0.28680  Biso   1.000  H
  H178     1.0000 0.90910  0.32850  0.22810  Biso   1.000  H
  C184     1.0000 0.90660  0.21290  0.26020  Biso   1.000  C
  C185     1.0000 0.91020  0.17990  0.21920  Biso   1.000  C
  C186     1.0000 0.88550  0.14770  0.22330  Biso   1.000  C
  H179     1.0000 0.86650  0.14630  0.25210  Biso   1.000  H
  C187     1.0000 0.88780  0.11650  0.18570  Biso   1.000  C
  C188     1.0000 0.91600  0.11990  0.14270  Biso   1.000  C
  H180     1.0000 0.91790  0.09900  0.11630  Biso   1.000  H
  C189     1.0000 0.94040  0.15240  0.13860  Biso   1.000  C
  C190     1.0000 0.93810  0.18320  0.17610  Biso   1.000  C
  H181     1.0000 0.95490  0.20620  0.17290  Biso   1.000  H
  C191     1.0000 0.86380  0.07780  0.18880  Biso   1.000  C
  C192     1.0000 0.76800  0.05580  0.25460  Biso   1.000  C
  H182     1.0000 0.77930  0.06110  0.29080  Biso   1.000  H
  H183     1.0000 0.74980  0.03270  0.25650  Biso   1.000  H
  H184     1.0000 0.75310  0.07950  0.24210  Biso   1.000  H
  C193     1.0000 0.80130  0.04700  0.21560  Biso   1.000  C
  H185     1.0000 0.81710  0.02350  0.22930  Biso   1.000  H
  C194     1.0000 0.78280  0.03610  0.15860  Biso   1.000  C
  C195     1.0000 0.97080  0.15640  0.09190  Biso   1.000  C
  C196     1.0000 0.97450  0.11520  0.95370  Biso   1.000  C
  H186     1.0000 0.97570  0.08730  0.96650  Biso   1.000  H
  H187     1.0000 0.99280  0.11860  0.92280  Biso   1.000  H
  H188     1.0000 0.94690  0.12160  0.94230  Biso   1.000  H
  C197     1.0000 0.98690  0.14350  0.99960  Biso   1.000  C
  H189     1.0000 0.01520  0.13710  0.01060  Biso   1.000  H
  C198     1.0000 0.98590  0.18560  0.97480  Biso   1.000  C
  C199     1.0000 0.97960  0.31940  0.87900  Biso   1.000  C
  C200     1.0000 0.97650  0.36010  0.85140  Biso   1.000  C
  H190     1.0000 0.99890  0.36300  0.82440  Biso   1.000  H
  C201     1.0000 0.98050  0.39440  0.89610  Biso   1.000  C
  H191     1.0000 0.96250  0.41670  0.88700  Biso   1.000  H
  H192     1.0000 0.00840  0.40410  0.89720  Biso   1.000  H
  H193     1.0000 0.97320  0.38350  0.93190  Biso   1.000  H
  C202     1.0000 0.93030  0.35240  0.77600  Biso   1.000  C
  C203     1.0000 0.88880  0.35900  0.75370  Biso   1.000  C
  C204     1.0000 0.87340  0.32940  0.71900  Biso   1.000  C
  H194     1.0000 0.88900  0.30630  0.71090  Biso   1.000  H
  C205     1.0000 0.83550  0.33380  0.69640  Biso   1.000  C
  C206     1.0000 0.81240  0.36882  0.70810  Biso   1.000  C
  H195     1.0000 0.78630  0.37240  0.69330  Biso   1.000  H
  C207     1.0000 0.82960  0.39760  0.74170  Biso   1.000  C
  C208     1.0000 0.86720  0.39230  0.76410  Biso   1.000  C
  H196     1.0000 0.87800  0.41250  0.78730  Biso   1.000  H
  C209     1.0000 0.81830  0.30220  0.66060  Biso   1.000  C
  C210     1.0000 0.83330  0.19510  0.64420  Biso   1.000  C
  H197     1.0000 0.86090  0.20100  0.63240  Biso   1.000  H
  H198     1.0000 0.82200  0.17370  0.62130  Biso   1.000  H
  H199     1.0000 0.83360  0.18620  0.68230  Biso   1.000  H
  C211     1.0000 0.80800  0.23220  0.63900  Biso   1.000  C
  H200     1.0000 0.80750  0.24060  0.59990  Biso   1.000  H
  C212     1.0000 0.76520  0.22270  0.65690  Biso   1.000  C
  C213     1.0000 0.80730  0.43710  0.75360  Biso   1.000  C
  C214     1.0000 0.70240  0.46770  0.74880  Biso   1.000  C
  H201     1.0000 0.70350  0.46220  0.70960  Biso   1.000  H
  H202     1.0000 0.68770  0.49280  0.75520  Biso   1.000  H
  H203     1.0000 0.68850  0.44550  0.76720  Biso   1.000  H
  C215     1.0000 0.74362  0.47131  0.77040  Biso   1.000  C
  H204     1.0000 0.75680  0.49500  0.75290  Biso   1.000  H
  C216     1.0000 0.74270  0.47820  0.83180  Biso   1.000  C
  N25      1.0000 0.87940  0.46970  0.96980  Biso   1.000  N
  H205     1.0000 0.86700  0.44500  0.96660  Biso   1.000  H
  N26      1.0000 0.84100  0.42072  0.21300  Biso   1.000  N
  H206     1.0000 0.83080  0.39970  0.19280  Biso   1.000  H
  N27      1.0000 0.98213  0.33475  0.08850  Biso   1.000  N
  H207     1.0000 0.95750  0.32250  0.08400  Biso   1.000  H
  N28      1.0000 0.71500  0.48736  0.12410  Biso   1.000  N
  H208     1.0000 0.72070  0.46280  0.10850  Biso   1.000  H
  N29      1.0000 0.54870  0.39910  0.08980  Biso   1.000  N
  H209     1.0000 0.56880  0.38470  0.07300  Biso   1.000  H
  N30      1.0000 0.65765  0.35259  0.29220  Biso   1.000  N
  H210     1.0000 0.66310  0.33740  0.26180  Biso   1.000  H
  N31      1.0000 0.91633  0.24998  0.24680  Biso   1.000  N
  H211     1.0000 0.90150  0.25630  0.21630  Biso   1.000  H
  N32      1.0000 0.82720  0.08140  0.21160  Biso   1.000  N
  H212     1.0000 0.81350  0.10070  0.19210  Biso   1.000  H
  N33      1.0000 0.96120  0.13790  0.04540  Biso   1.000  N
  H213     1.0000 0.93610  0.14710  0.03560  Biso   1.000  H
  N34      1.0000 0.93860  0.36778  0.82470  Biso   1.000  N
  H214     1.0000 0.91890  0.35870  0.84800  Biso   1.000  H
  N35      1.0000 0.82561  0.26405  0.67040  Biso   1.000  N
  H215     1.0000 0.81820  0.25960  0.70600  Biso   1.000  H
  N36      1.0000 0.76651  0.43528  0.75640  Biso   1.000  N
  H216     1.0000 0.76030  0.41600  0.78190  Biso   1.000  H
  O73      1.0000 0.79649  0.52721  0.91957  Biso   1.000  O
  O74      1.0000 0.79871  0.46421  0.95080  Biso   1.000  O
  O75      1.0000 0.86510  0.51079  0.03940  Biso   1.000  O
  O76      1.0000 0.80463  0.37122  0.33242  Biso   1.000  O
  O77      1.0000 0.80352  0.35138  0.24495  Biso   1.000  O
  O78      1.0000 0.90230  0.41430  0.24850  Biso   1.000  O
  O79      1.0000 0.03097  0.27402  0.98760  Biso   1.000  O
  O80      1.0000 0.96535  0.28648  0.00274  Biso   1.000  O
  O81      1.0000 0.00331  0.38194  0.03210  Biso   1.000  O
  O82      1.0000 0.74114  0.53809  0.00180  Biso   1.000  O
  O83      1.0000 0.73164  0.47245  0.01814  Biso   1.000  O
  O84      1.0000 0.65600  0.51720  0.10670  Biso   1.000  O
  O85      1.0000 0.47606  0.32182  0.07150  Biso   1.000  O
  O86      1.0000 0.54265  0.31843  0.06940  Biso   1.000  O
  O87      1.0000 0.53010  0.38650  0.17690  Biso   1.000  O
  O88      1.0000 0.74284  0.32258  0.36990  Biso   1.000  O
  O89      1.0000 0.73167  0.31826  0.27982  Biso   1.000  O
  O90      1.0000 0.69054  0.40907  0.30780  Biso   1.000  O
  O91      1.0000 0.85652  0.30635  0.33980  Biso   1.000  O
  O92      1.0000 0.84075  0.27833  0.26040  Biso   1.000  O
  O93      1.0000 0.89374  0.20386  0.30763  Biso   1.000  O
  O94      1.0000 0.77305  0.99965  0.15264  Biso   1.000  O
  O95      1.0000 0.77775  0.06450  0.12581  Biso   1.000  O
  O96      1.0000 0.87600  0.04656  0.17220  Biso   1.000  O
  O97      1.0000 0.01688  0.19679  0.94880  Biso   1.000  O
  O98      1.0000 0.95451  0.20565  0.98080  Biso   1.000  O
  O99      1.0000 0.00110  0.17533  0.09900  Biso   1.000  O
  O100     1.0000 0.01407  0.30553  0.88550  Biso   1.000  O
  O101     1.0000 0.94691  0.30351  0.89460  Biso   1.000  O
  O102     1.0000 0.95682  0.33355  0.74980  Biso   1.000  O
  O103     1.0000 0.74256  0.20569  0.62260  Biso   1.000  O
  O104     1.0000 0.75534  0.23121  0.70654  Biso   1.000  O
  O105     1.0000 0.79730  0.31295  0.62000  Biso   1.000  O
  O106     1.0000 0.73570  0.51510  0.84518  Biso   1.000  O
  O107     1.0000 0.74870  0.45019  0.86320  Biso   1.000  O
  O108     1.0000 0.82669  0.46889  0.75690  Biso   1.000  O
  Cu19     1.0000 0.46817  0.26267  0.07791  Biso   1.000  Cu
  Cu20     1.0000 0.54589  0.25995  0.05745  Biso   1.000  Cu
  Cu21     1.0000 0.68442  0.19931  0.63702  Biso   1.000  Cu
  Cu22     1.0000 0.70396  0.21557  0.73876  Biso   1.000  Cu
  Cu23     1.0000 0.74953  0.97931  0.08462  Biso   1.000  Cu
  Cu24     1.0000 0.74438  0.05601  0.05919  Biso   1.000  Cu
  C217     1.0000 0.50420  0.18370  0.06540  Biso   1.000  C
  C218     1.0000 0.50490  0.13910  0.07000  Biso   1.000  C
  H217     1.0000 0.47690  0.12930  0.06330  Biso   1.000  H
  C219     1.0000 0.51610  0.12730  0.12790  Biso   1.000  C
  H218     1.0000 0.51470  0.09800  0.13160  Biso   1.000  H
  H219     1.0000 0.49730  0.13990  0.15350  Biso   1.000  H
  H220     1.0000 0.54350  0.13650  0.13580  Biso   1.000  H
  C220     1.0000 0.52160  0.12050  0.97830  Biso   1.000  C
  C221     1.0000 0.55130  0.10270  0.93850  Biso   1.000  C
  C222     1.0000 0.55360  0.11900  0.88540  Biso   1.000  C
  H221     1.0000 0.53740  0.14140  0.87540  Biso   1.000  H
  C223     1.0000 0.57910  0.10240  0.84920  Biso   1.000  C
  C224     1.0000 0.60660  0.07080  0.86270  Biso   1.000  C
  H222     1.0000 0.62600  0.06100  0.83750  Biso   1.000  H
  C225     1.0000 0.60330  0.05520  0.91590  Biso   1.000  C
  C226     1.0000 0.57710  0.07120  0.95250  Biso   1.000  C
  H223     1.0000 0.57630  0.06070  0.98840  Biso   1.000  H
  C227     1.0000 0.58210  0.11850  0.79070  Biso   1.000  C
  C228     1.0000 0.55450  0.21810  0.73920  Biso   1.000  C
  H224     1.0000 0.52650  0.21080  0.74690  Biso   1.000  H
  H225     1.0000 0.55580  0.23290  0.70480  Biso   1.000  H
  H226     1.0000 0.56480  0.23510  0.76870  Biso   1.000  H
  C229     1.0000 0.58030  0.17950  0.73500  Biso   1.000  C
  H227     1.0000 0.56880  0.16150  0.70630  Biso   1.000  H
  C230     1.0000 0.62270  0.19130  0.71930  Biso   1.000  C
  C231     1.0000 0.62960  0.02050  0.93460  Biso   1.000  C
  C232     1.0000 0.72600  0.98080  0.88670  Biso   1.000  C
  H228     1.0000 0.71310  0.97310  0.85230  Biso   1.000  H
  H229     1.0000 0.74400  0.95920  0.89860  Biso   1.000  H
  H230     1.0000 0.74150  0.00550  0.88140  Biso   1.000  H
  C233     1.0000 0.69400  0.98780  0.92950  Biso   1.000  C
  H231     1.0000 0.67890  0.96190  0.93380  Biso   1.000  H
  C234     1.0000 0.71230  0.99760  0.98420  Biso   1.000  C
  C235     1.0000 0.49120  0.26440  0.96650  Biso   1.000  C
  C236     1.0000 0.48300  0.26200  0.90580  Biso   1.000  C
  H232     1.0000 0.45570  0.27350  0.89830  Biso   1.000  H
  C237     1.0000 0.48350  0.21960  0.88840  Biso   1.000  C
  H233     1.0000 0.47010  0.21710  0.85310  Biso   1.000  H
  H234     1.0000 0.46930  0.20320  0.91550  Biso   1.000  H
  H235     1.0000 0.51140  0.21040  0.88530  Biso   1.000  H
  C238     1.0000 0.51020  0.32560  0.87210  Biso   1.000  C
  C239     1.0000 0.54440  0.34610  0.84350  Biso   1.000  C
  C240     1.0000 0.55730  0.38230  0.86280  Biso   1.000  C
  H236     1.0000 0.54560  0.39280  0.89510  Biso   1.000  H
  C241     1.0000 0.58730  0.40450  0.83640  Biso   1.000  C
  C242     1.0000 0.60550  0.38720  0.79060  Biso   1.000  C
  H237     1.0000 0.62670  0.40110  0.77280  Biso   1.000  H
  C243     1.0000 0.59320  0.35000  0.77060  Biso   1.000  C
  C244     1.0000 0.56200  0.33090  0.79640  Biso   1.000  C
  H238     1.0000 0.55210  0.30640  0.78170  Biso   1.000  H
  C245     1.0000 0.60260  0.44490  0.85770  Biso   1.000  C
  C246     1.0000 0.60180  0.49680  0.99050  Biso   1.000  C
  H239     1.0000 0.57740  0.48120  0.99820  Biso   1.000  H
  H240     1.0000 0.59610  0.52550  0.99490  Biso   1.000  H
  H241     1.0000 0.62320  0.48880  0.01580  Biso   1.000  H
  C247     1.0000 0.61600  0.48830  0.92960  Biso   1.000  C
  H242     1.0000 0.60590  0.51040  0.90560  Biso   1.000  H
  C248     1.0000 0.66480  0.48910  0.93000  Biso   1.000  C
  C249     1.0000 0.61070  0.33250  0.71980  Biso   1.000  C
  C250     1.0000 0.70660  0.34530  0.65020  Biso   1.000  C
  H243     1.0000 0.70080  0.37190  0.63480  Biso   1.000  H
  H244     1.0000 0.72230  0.32960  0.62390  Biso   1.000  H
  H245     1.0000 0.72200  0.34840  0.68390  Biso   1.000  H
  C251     1.0000 0.66830  0.32420  0.66190  Biso   1.000  C
  H246     1.0000 0.65060  0.32700  0.62920  Biso   1.000  H
  C252     1.0000 0.67460  0.27920  0.67210  Biso   1.000  C
  C253     1.0000 0.71080  0.13586  0.70420  Biso   1.000  C
  C254     1.0000 0.71730  0.08840  0.71660  Biso   1.000  C
  H247     1.0000 0.72290  0.07370  0.68190  Biso   1.000  H
  C255     1.0000 0.67860  0.07400  0.74060  Biso   1.000  C
  H248     1.0000 0.68160  0.04610  0.75260  Biso   1.000  H
  H249     1.0000 0.65720  0.07570  0.71320  Biso   1.000  H
  H250     1.0000 0.67150  0.09090  0.77190  Biso   1.000  H
  C256     1.0000 0.78710  0.09340  0.73980  Biso   1.000  C
  C257     1.0000 0.82010  0.08980  0.78080  Biso   1.000  C
  C258     1.0000 0.85230  0.11450  0.77670  Biso   1.000  C
  H251     1.0000 0.85370  0.13350  0.74790  Biso   1.000  H
  C259     1.0000 0.88350  0.11220  0.81430  Biso   1.000  C
  C260     1.0000 0.88010  0.08400  0.85730  Biso   1.000  C
  H252     1.0000 0.90100  0.08210  0.88370  Biso   1.000  H
  C261     1.0000 0.84760  0.05960  0.86140  Biso   1.000  C
  C262     1.0000 0.81680  0.06190  0.82390  Biso   1.000  C
  H253     1.0000 0.79380  0.04510  0.82710  Biso   1.000  H
  C263     1.0000 0.92220  0.13620  0.81120  Biso   1.000  C
  C264     1.0000 0.94420  0.23200  0.74540  Biso   1.000  C
  H254     1.0000 0.93890  0.22070  0.70920  Biso   1.000  H
  H255     1.0000 0.96730  0.25020  0.74350  Biso   1.000  H
  H256     1.0000 0.92050  0.24690  0.75790  Biso   1.000  H
  C265     1.0000 0.95300  0.19870  0.78440  Biso   1.000  C
  H257     1.0000 0.97650  0.18290  0.77070  Biso   1.000  H
  C266     1.0000 0.96390  0.21720  0.84140  Biso   1.000  C
  C267     1.0000 0.84360  0.02920  0.90810  Biso   1.000  C
  C268     1.0000 0.88480  0.02550  0.04630  Biso   1.000  C
  H258     1.0000 0.91270  0.02430  0.03350  Biso   1.000  H
  H259     1.0000 0.88140  0.00720  0.07720  Biso   1.000  H
  H260     1.0000 0.87840  0.05310  0.05770  Biso   1.000  H
  C269     1.0000 0.85650  0.01310  0.00040  Biso   1.000  C
  H261     1.0000 0.86290  0.98480  0.98940  Biso   1.000  H
  C270     1.0000 0.81440  0.01410  0.02520  Biso   1.000  C
  C271     1.0000 0.68060  0.02040  0.12100  Biso   1.000  C
  C272     1.0000 0.63990  0.02350  0.14860  Biso   1.000  C
  H262     1.0000 0.63700  0.00110  0.17560  Biso   1.000  H
  C273     1.0000 0.60560  0.01950  0.10390  Biso   1.000  C
  H263     1.0000 0.58330  0.03750  0.11300  Biso   1.000  H
  H264     1.0000 0.59590  0.99160  0.10280  Biso   1.000  H
  H265     1.0000 0.61650  0.02680  0.06810  Biso   1.000  H
  C274     1.0000 0.64760  0.06970  0.22400  Biso   1.000  C
  C275     1.0000 0.64100  0.11120  0.24630  Biso   1.000  C
  C276     1.0000 0.67060  0.12660  0.28100  Biso   1.000  C
  H266     1.0000 0.69370  0.11100  0.28910  Biso   1.000  H
  C277     1.0000 0.66620  0.16450  0.30360  Biso   1.000  C
  C278     1.0000 0.63118  0.18760  0.29190  Biso   1.000  C
  H267     1.0000 0.62760  0.21370  0.30670  Biso   1.000  H
  C279     1.0000 0.60240  0.17040  0.25830  Biso   1.000  C
  C280     1.0000 0.60770  0.13280  0.23590  Biso   1.000  C
  H268     1.0000 0.58750  0.12200  0.21270  Biso   1.000  H
  C281     1.0000 0.69780  0.18170  0.33940  Biso   1.000  C
  C282     1.0000 0.80490  0.16670  0.35580  Biso   1.000  C
  H269     1.0000 0.79900  0.13910  0.36760  Biso   1.000  H
  H270     1.0000 0.82630  0.17800  0.37870  Biso   1.000  H
  H271     1.0000 0.81380  0.16640  0.31770  Biso   1.000  H
  C283     1.0000 0.76780  0.19200  0.36100  Biso   1.000  C
  H272     1.0000 0.75940  0.19250  0.40010  Biso   1.000  H
  C284     1.0000 0.77730  0.23480  0.34310  Biso   1.000  C
  C285     1.0000 0.56290  0.19270  0.24640  Biso   1.000  C
  C286     1.0000 0.53230  0.29760  0.25120  Biso   1.000  C
  H273     1.0000 0.53780  0.29650  0.29040  Biso   1.000  H
  H274     1.0000 0.50720  0.31230  0.24480  Biso   1.000  H
  H275     1.0000 0.55450  0.31150  0.23280  Biso   1.000  H
  C287     1.0000 0.52869  0.25638  0.22960  Biso   1.000  C
  H276     1.0000 0.50500  0.24320  0.24710  Biso   1.000  H
  C288     1.0000 0.52180  0.25730  0.16820  Biso   1.000  C
  N37      1.0000 0.53030  0.12060  0.03020  Biso   1.000  N
  H277     1.0000 0.55500  0.13300  0.03340  Biso   1.000  H
  N38      1.0000 0.57928  0.15900  0.78700  Biso   1.000  N
  H278     1.0000 0.60030  0.16920  0.80720  Biso   1.000  H
  N39      1.0000 0.66525  0.01787  0.91150  Biso   1.000  N
  H279     1.0000 0.67750  0.04250  0.91600  Biso   1.000  H
  N40      1.0000 0.51264  0.28500  0.87590  Biso   1.000  N
  H280     1.0000 0.53720  0.27930  0.89150  Biso   1.000  H
  N41      1.0000 0.60090  0.45130  0.91020  Biso   1.000  N
  H281     1.0000 0.61530  0.43120  0.92700  Biso   1.000  H
  N42      1.0000 0.64741  0.34235  0.70780  Biso   1.000  N
  H282     1.0000 0.66260  0.33690  0.73820  Biso   1.000  H
  N43      1.0000 0.75002  0.08367  0.75320  Biso   1.000  N
  H283     1.0000 0.74370  0.09850  0.78370  Biso   1.000  H
  N44      1.0000 0.91860  0.17280  0.78840  Biso   1.000  N
  H284     1.0000 0.89930  0.18650  0.80790  Biso   1.000  H
  N45      1.0000 0.86210  0.03880  0.95460  Biso   1.000  N
  H285     1.0000 0.85290  0.06390  0.96440  Biso   1.000  H
  N46      1.0000 0.63222  0.06140  0.17530  Biso   1.000  N
  H286     1.0000 0.64130  0.08110  0.15200  Biso   1.000  H
  N47      1.0000 0.73595  0.17439  0.32960  Biso   1.000  N
  H287     1.0000 0.74040  0.18180  0.29400  Biso   1.000  H
  N48      1.0000 0.56472  0.23349  0.24360  Biso   1.000  N
  H288     1.0000 0.58400  0.23970  0.21810  Biso   1.000  H
  O109     1.0000 0.47279  0.20351  0.08043  Biso   1.000  O
  O110     1.0000 0.53579  0.20129  0.04920  Biso   1.000  O
  O111     1.0000 0.48921  0.13490  0.96060  Biso   1.000  O
  O112     1.0000 0.62878  0.19537  0.66758  Biso   1.000  O
  O113     1.0000 0.64862  0.19648  0.75505  Biso   1.000  O
  O114     1.0000 0.58570  0.09770  0.75150  Biso   1.000  O
  O115     1.0000 0.72598  0.96903  0.01240  Biso   1.000  O
  O116     1.0000 0.71352  0.03465  0.99726  Biso   1.000  O
  O117     1.0000 0.61806  0.99669  0.96790  Biso   1.000  O
  O118     1.0000 0.46191  0.25886  0.99820  Biso   1.000  O
  O119     1.0000 0.52755  0.26836  0.98186  Biso   1.000  O
  O120     1.0000 0.48280  0.34400  0.89330  Biso   1.000  O
  O121     1.0000 0.67818  0.52394  0.92850  Biso   1.000  O
  O122     1.0000 0.68157  0.45735  0.93060  Biso   1.000  O
  O123     1.0000 0.61350  0.46990  0.82310  Biso   1.000  O
  O124     1.0000 0.67742  0.25716  0.63010  Biso   1.000  O
  O125     1.0000 0.68174  0.26833  0.72018  Biso   1.000  O
  O126     1.0000 0.59093  0.30946  0.69220  Biso   1.000  O
  O127     1.0000 0.69365  0.14348  0.66020  Biso   1.000  O
  O128     1.0000 0.72167  0.15925  0.73960  Biso   1.000  O
  O129     1.0000 0.79614  0.10626  0.69237  Biso   1.000  O
  O130     1.0000 0.00035  0.22695  0.84736  Biso   1.000  O
  O131     1.0000 0.93550  0.22225  0.87419  Biso   1.000  O
  O132     1.0000 0.95344  0.12400  0.82780  Biso   1.000  O
  O133     1.0000 0.80321  0.98312  0.05120  Biso   1.000  O
  O134     1.0000 0.79435  0.04549  0.01920  Biso   1.000  O
  O135     1.0000 0.82467  0.99890  0.90100  Biso   1.000  O
  O136     1.0000 0.69447  0.98593  0.11450  Biso   1.000  O
  O137     1.0000 0.69649  0.05309  0.10540  Biso   1.000  O
  O138     1.0000 0.66645  0.04318  0.25020  Biso   1.000  O
  O139     1.0000 0.79431  0.25744  0.37740  Biso   1.000  O
  O140     1.0000 0.76879  0.24466  0.29346  Biso   1.000  O
  O141     1.0000 0.68705  0.20270  0.38000  Biso   1.000  O
  O142     1.0000 0.48490  0.26430  0.15482  Biso   1.000  O
  O143     1.0000 0.54981  0.25130  0.13680  Biso   1.000  O
  O144     1.0000 0.53111  0.17331  0.24310  Biso   1.000  O
  Cu25     1.0000 0.03183  0.76267  0.42209  Biso   1.000  Cu
  Cu26     1.0000 0.95411  0.75995  0.44255  Biso   1.000  Cu
  Cu27     1.0000 0.81558  0.69931  0.86298  Biso   1.000  Cu
  Cu28     1.0000 0.79604  0.71557  0.76124  Biso   1.000  Cu
  Cu29     1.0000 0.75047  0.47931  0.41538  Biso   1.000  Cu
  Cu30     1.0000 0.75562  0.55601  0.44081  Biso   1.000  Cu
  C289     1.0000 0.99580  0.68370  0.43460  Biso   1.000  C
  C290     1.0000 0.99510  0.63910  0.43000  Biso   1.000  C
  H289     1.0000 0.02310  0.62930  0.43670  Biso   1.000  H
  C291     1.0000 0.98390  0.62730  0.37210  Biso   1.000  C
  H290     1.0000 0.98530  0.59800  0.36840  Biso   1.000  H
  H291     1.0000 0.00270  0.63990  0.34650  Biso   1.000  H
  H292     1.0000 0.95650  0.63650  0.36420  Biso   1.000  H
  C292     1.0000 0.97840  0.62050  0.52170  Biso   1.000  C
  C293     1.0000 0.94870  0.60270  0.56150  Biso   1.000  C
  C294     1.0000 0.94640  0.61900  0.61460  Biso   1.000  C
  H293     1.0000 0.96260  0.64140  0.62460  Biso   1.000  H
  C295     1.0000 0.92090  0.60240  0.65080  Biso   1.000  C
  C296     1.0000 0.89340  0.57080  0.63730  Biso   1.000  C
  H294     1.0000 0.87400  0.56100  0.66250  Biso   1.000  H
  C297     1.0000 0.89670  0.55520  0.58410  Biso   1.000  C
  C298     1.0000 0.92290  0.57120  0.54750  Biso   1.000  C
  H295     1.0000 0.92370  0.56070  0.51160  Biso   1.000  H
  C299     1.0000 0.91790  0.61850  0.70930  Biso   1.000  C
  C300     1.0000 0.94550  0.71810  0.76080  Biso   1.000  C
  H296     1.0000 0.97350  0.71080  0.75310  Biso   1.000  H
  H297     1.0000 0.94420  0.73290  0.79520  Biso   1.000  H
  H298     1.0000 0.93520  0.73510  0.73130  Biso   1.000  H
  C301     1.0000 0.91970  0.67950  0.76500  Biso   1.000  C
  H299     1.0000 0.93120  0.66150  0.79370  Biso   1.000  H
  C302     1.0000 0.87730  0.69130  0.78070  Biso   1.000  C
  C303     1.0000 0.87040  0.52050  0.56540  Biso   1.000  C
  C304     1.0000 0.77400  0.48080  0.61330  Biso   1.000  C
  H300     1.0000 0.78690  0.47310  0.64770  Biso   1.000  H
  H301     1.0000 0.75600  0.45920  0.60140  Biso   1.000  H
  H302     1.0000 0.75850  0.50550  0.61860  Biso   1.000  H
  C305     1.0000 0.80600  0.48780  0.57050  Biso   1.000  C
  H303     1.0000 0.82110  0.46190  0.56620  Biso   1.000  H
  C306     1.0000 0.78770  0.49760  0.51580  Biso   1.000  C
  C307     1.0000 0.00880  0.76440  0.53350  Biso   1.000  C
  C308     1.0000 0.01700  0.76200  0.59420  Biso   1.000  C
  H304     1.0000 0.04430  0.77350  0.60170  Biso   1.000  H
  C309     1.0000 0.01650  0.71960  0.61160  Biso   1.000  C
  H305     1.0000 0.02990  0.71710  0.64690  Biso   1.000  H
  H306     1.0000 0.03070  0.70320  0.58450  Biso   1.000  H
  H307     1.0000 0.98860  0.71040  0.61470  Biso   1.000  H
  C310     1.0000 0.98980  0.82560  0.62790  Biso   1.000  C
  C311     1.0000 0.95560  0.84610  0.65650  Biso   1.000  C
  C312     1.0000 0.94270  0.88230  0.63720  Biso   1.000  C
  H308     1.0000 0.95440  0.89280  0.60490  Biso   1.000  H
  C313     1.0000 0.91270  0.90450  0.66360  Biso   1.000  C
  C314     1.0000 0.89450  0.88720  0.70940  Biso   1.000  C
  H309     1.0000 0.87330  0.90110  0.72720  Biso   1.000  H
  C315     1.0000 0.90680  0.85000  0.72940  Biso   1.000  C
  C316     1.0000 0.93800  0.83090  0.70360  Biso   1.000  C
  H310     1.0000 0.94790  0.80640  0.71830  Biso   1.000  H
  C317     1.0000 0.89740  0.94490  0.64230  Biso   1.000  C
  C318     1.0000 0.89820  0.99680  0.50950  Biso   1.000  C
  H311     1.0000 0.92260  0.98120  0.50180  Biso   1.000  H
  H312     1.0000 0.90390  0.02550  0.50510  Biso   1.000  H
  H313     1.0000 0.87680  0.98880  0.48420  Biso   1.000  H
  C319     1.0000 0.88400  0.98830  0.57040  Biso   1.000  C
  H314     1.0000 0.89410  0.01040  0.59440  Biso   1.000  H
  C320     1.0000 0.83520  0.98910  0.57000  Biso   1.000  C
  C321     1.0000 0.88930  0.83250  0.78020  Biso   1.000  C
  C322     1.0000 0.79340  0.84530  0.84980  Biso   1.000  C
  H315     1.0000 0.79920  0.87190  0.86520  Biso   1.000  H
  H316     1.0000 0.77770  0.82960  0.87610  Biso   1.000  H
  H317     1.0000 0.77800  0.84840  0.81610  Biso   1.000  H
  C323     1.0000 0.83170  0.82420  0.83810  Biso   1.000  C
  H318     1.0000 0.84940  0.82700  0.87080  Biso   1.000  H
  C324     1.0000 0.82540  0.77920  0.82790  Biso   1.000  C
  C325     1.0000 0.78920  0.63586  0.79580  Biso   1.000  C
  C326     1.0000 0.78270  0.58840  0.78340  Biso   1.000  C
  H319     1.0000 0.77710  0.57370  0.81810  Biso   1.000  H
  C327     1.0000 0.82140  0.57400  0.75940  Biso   1.000  C
  H320     1.0000 0.81840  0.54610  0.74740  Biso   1.000  H
  H321     1.0000 0.84280  0.57570  0.78680  Biso   1.000  H
  H322     1.0000 0.82850  0.59090  0.72810  Biso   1.000  H
  C328     1.0000 0.71290  0.59340  0.76020  Biso   1.000  C
  C329     1.0000 0.67990  0.58980  0.71920  Biso   1.000  C
  C330     1.0000 0.64770  0.61450  0.72330  Biso   1.000  C
  H323     1.0000 0.64630  0.63350  0.75210  Biso   1.000  H
  C331     1.0000 0.61650  0.61220  0.68570  Biso   1.000  C
  C332     1.0000 0.61990  0.58400  0.64270  Biso   1.000  C
  H324     1.0000 0.59900  0.58210  0.61630  Biso   1.000  H
  C333     1.0000 0.65240  0.55960  0.63860  Biso   1.000  C
  C334     1.0000 0.68320  0.56190  0.67610  Biso   1.000  C
  H325     1.0000 0.70620  0.54510  0.67290  Biso   1.000  H
  C335     1.0000 0.57780  0.63620  0.68880  Biso   1.000  C
  C336     1.0000 0.55580  0.73200  0.75460  Biso   1.000  C
  H326     1.0000 0.56110  0.72070  0.79080  Biso   1.000  H
  H327     1.0000 0.53270  0.75020  0.75650  Biso   1.000  H
  H328     1.0000 0.57950  0.74690  0.74210  Biso   1.000  H
  C337     1.0000 0.54700  0.69870  0.71560  Biso   1.000  C
  H329     1.0000 0.52350  0.68290  0.72930  Biso   1.000  H
  C338     1.0000 0.53610  0.71720  0.65860  Biso   1.000  C
  C339     1.0000 0.65640  0.52920  0.59190  Biso   1.000  C
  C340     1.0000 0.61520  0.52550  0.45370  Biso   1.000  C
  H330     1.0000 0.58730  0.52430  0.46650  Biso   1.000  H
  H331     1.0000 0.61860  0.50720  0.42280  Biso   1.000  H
  H332     1.0000 0.62160  0.55310  0.44230  Biso   1.000  H
  C341     1.0000 0.64350  0.51310  0.49960  Biso   1.000  C
  H333     1.0000 0.63710  0.48480  0.51060  Biso   1.000  H
  C342     1.0000 0.68560  0.51410  0.47480  Biso   1.000  C
  C343     1.0000 0.81940  0.52040  0.37900  Biso   1.000  C
  C344     1.0000 0.86010  0.52350  0.35140  Biso   1.000  C
  H334     1.0000 0.86300  0.50110  0.32440  Biso   1.000  H
  C345     1.0000 0.89440  0.51950  0.39610  Biso   1.000  C
  H335     1.0000 0.91670  0.53750  0.38700  Biso   1.000  H
  H336     1.0000 0.90410  0.49160  0.39720  Biso   1.000  H
  H337     1.0000 0.88350  0.52680  0.43190  Biso   1.000  H
  C346     1.0000 0.85240  0.56970  0.27600  Biso   1.000  C
  C347     1.0000 0.85900  0.61120  0.25370  Biso   1.000  C
  C348     1.0000 0.82940  0.62660  0.21900  Biso   1.000  C
  H338     1.0000 0.80630  0.61100  0.21090  Biso   1.000  H
  C349     1.0000 0.83380  0.66450  0.19640  Biso   1.000  C
  C350     1.0000 0.86882  0.68760  0.20810  Biso   1.000  C
  H339     1.0000 0.87240  0.71370  0.19330  Biso   1.000  H
  C351     1.0000 0.89760  0.67040  0.24170  Biso   1.000  C
  C352     1.0000 0.89230  0.63280  0.26410  Biso   1.000  C
  H340     1.0000 0.91250  0.62200  0.28730  Biso   1.000  H
  C353     1.0000 0.80220  0.68170  0.16060  Biso   1.000  C
  C354     1.0000 0.69510  0.66670  0.14420  Biso   1.000  C
  H341     1.0000 0.70100  0.63910  0.13240  Biso   1.000  H
  H342     1.0000 0.67370  0.67800  0.12130  Biso   1.000  H
  H343     1.0000 0.68620  0.66640  0.18230  Biso   1.000  H
  C355     1.0000 0.73220  0.69200  0.13900  Biso   1.000  C
  H344     1.0000 0.74060  0.69250  0.09990  Biso   1.000  H
  C356     1.0000 0.72270  0.73480  0.15690  Biso   1.000  C
  C357     1.0000 0.93710  0.69270  0.25360  Biso   1.000  C
  C358     1.0000 0.96770  0.79760  0.24880  Biso   1.000  C
  H345     1.0000 0.96220  0.79650  0.20960  Biso   1.000  H
  H346     1.0000 0.99280  0.81230  0.25520  Biso   1.000  H
  H347     1.0000 0.94550  0.81150  0.26720  Biso   1.000  H
  C359     1.0000 0.97131  0.75638  0.27040  Biso   1.000  C
  H348     1.0000 0.99500  0.74320  0.25290  Biso   1.000  H
  C360     1.0000 0.97820  0.75730  0.33180  Biso   1.000  C
  N49      1.0000 0.96970  0.62060  0.46980  Biso   1.000  N
  H349     1.0000 0.94500  0.63300  0.46660  Biso   1.000  H
  N50      1.0000 0.92072  0.65900  0.71300  Biso   1.000  N
  H350     1.0000 0.89970  0.66920  0.69280  Biso   1.000  H
  N51      1.0000 0.83475  0.51787  0.58850  Biso   1.000  N
  H351     1.0000 0.82250  0.54250  0.58400  Biso   1.000  H
  N52      1.0000 0.98736  0.78500  0.62410  Biso   1.000  N
  H352     1.0000 0.96280  0.77930  0.60850  Biso   1.000  H
  N53      1.0000 0.89910  0.95130  0.58980  Biso   1.000  N
  H353     1.0000 0.88470  0.93120  0.57300  Biso   1.000  H
  N54      1.0000 0.85259  0.84235  0.79220  Biso   1.000  N
  H354     1.0000 0.83740  0.83690  0.76180  Biso   1.000  H
  N55      1.0000 0.74998  0.58367  0.74680  Biso   1.000  N
  H355     1.0000 0.75630  0.59850  0.71630  Biso   1.000  H
  N56      1.0000 0.58140  0.67280  0.71160  Biso   1.000  N
  H356     1.0000 0.60070  0.68650  0.69210  Biso   1.000  H
  N57      1.0000 0.63790  0.53880  0.54540  Biso   1.000  N
  H357     1.0000 0.64710  0.56390  0.53560  Biso   1.000  H
  N58      1.0000 0.86778  0.56140  0.32470  Biso   1.000  N
  H358     1.0000 0.85870  0.58110  0.34800  Biso   1.000  H
  N59      1.0000 0.76405  0.67439  0.17040  Biso   1.000  N
  H359     1.0000 0.75960  0.68180  0.20600  Biso   1.000  H
  N60      1.0000 0.93528  0.73349  0.25640  Biso   1.000  N
  H360     1.0000 0.91600  0.73970  0.28190  Biso   1.000  H
  O145     1.0000 0.02721  0.70351  0.41957  Biso   1.000  O
  O146     1.0000 0.96421  0.70129  0.45080  Biso   1.000  O
  O147     1.0000 0.01079  0.63490  0.53940  Biso   1.000  O
  O148     1.0000 0.87122  0.69537  0.83242  Biso   1.000  O
  O149     1.0000 0.85138  0.69648  0.74495  Biso   1.000  O
  O150     1.0000 0.91430  0.59770  0.74850  Biso   1.000  O
  O151     1.0000 0.77402  0.46903  0.48760  Biso   1.000  O
  O152     1.0000 0.78648  0.53465  0.50274  Biso   1.000  O
  O153     1.0000 0.88194  0.49669  0.53210  Biso   1.000  O
  O154     1.0000 0.03809  0.75886  0.50180  Biso   1.000  O
  O155     1.0000 0.97245  0.76836  0.51814  Biso   1.000  O
  O156     1.0000 0.01720  0.84400  0.60670  Biso   1.000  O
  O157     1.0000 0.82182  0.02394  0.57150  Biso   1.000  O
  O158     1.0000 0.81843  0.95735  0.56940  Biso   1.000  O
  O159     1.0000 0.88650  0.96990  0.67690  Biso   1.000  O
  O160     1.0000 0.82258  0.75716  0.86990  Biso   1.000  O
  O161     1.0000 0.81826  0.76833  0.77982  Biso   1.000  O
  O162     1.0000 0.90907  0.80946  0.80780  Biso   1.000  O
  O163     1.0000 0.80635  0.64348  0.83980  Biso   1.000  O
  O164     1.0000 0.77833  0.65925  0.76040  Biso   1.000  O
  O165     1.0000 0.70386  0.60626  0.80763  Biso   1.000  O
  O166     1.0000 0.49965  0.72695  0.65264  Biso   1.000  O
  O167     1.0000 0.56450  0.72225  0.62581  Biso   1.000  O
  O168     1.0000 0.54656  0.62400  0.67220  Biso   1.000  O
  O169     1.0000 0.69679  0.48312  0.44880  Biso   1.000  O
  O170     1.0000 0.70565  0.54549  0.48080  Biso   1.000  O
  O171     1.0000 0.67533  0.49890  0.59900  Biso   1.000  O
  O172     1.0000 0.80553  0.48593  0.38550  Biso   1.000  O
  O173     1.0000 0.80351  0.55309  0.39460  Biso   1.000  O
  O174     1.0000 0.83355  0.54318  0.24980  Biso   1.000  O
  O175     1.0000 0.70569  0.75744  0.12260  Biso   1.000  O
  O176     1.0000 0.73121  0.74466  0.20654  Biso   1.000  O
  O177     1.0000 0.81295  0.70270  0.12000  Biso   1.000  O
  O178     1.0000 0.01510  0.76430  0.34518  Biso   1.000  O
  O179     1.0000 0.95019  0.75130  0.36320  Biso   1.000  O
  O180     1.0000 0.96889  0.67331  0.25690  Biso   1.000  O
  Cu31     1.0000 0.76267  0.03183  0.57791  Biso   1.000  Cu
  Cu32     1.0000 0.75995  0.95411  0.55745  Biso   1.000  Cu
  Cu33     1.0000 0.69931  0.81558  0.13702  Biso   1.000  Cu
  Cu34     1.0000 0.71557  0.79604  0.23876  Biso   1.000  Cu
  Cu35     1.0000 0.47931  0.75047  0.58462  Biso   1.000  Cu
  Cu36     1.0000 0.55601  0.75562  0.55919  Biso   1.000  Cu
  C361     1.0000 0.68370  0.99580  0.56540  Biso   1.000  C
  C362     1.0000 0.63910  0.99510  0.57000  Biso   1.000  C
  H361     1.0000 0.62930  0.02310  0.56330  Biso   1.000  H
  C363     1.0000 0.62730  0.98390  0.62790  Biso   1.000  C
  H362     1.0000 0.59800  0.98530  0.63160  Biso   1.000  H
  H363     1.0000 0.63990  0.00270  0.65350  Biso   1.000  H
  H364     1.0000 0.63650  0.95650  0.63580  Biso   1.000  H
  C364     1.0000 0.62050  0.97840  0.47830  Biso   1.000  C
  C365     1.0000 0.60270  0.94870  0.43850  Biso   1.000  C
  C366     1.0000 0.61900  0.94640  0.38540  Biso   1.000  C
  H365     1.0000 0.64140  0.96260  0.37540  Biso   1.000  H
  C367     1.0000 0.60240  0.92090  0.34920  Biso   1.000  C
  C368     1.0000 0.57080  0.89340  0.36270  Biso   1.000  C
  H366     1.0000 0.56100  0.87400  0.33750  Biso   1.000  H
  C369     1.0000 0.55520  0.89670  0.41590  Biso   1.000  C
  C370     1.0000 0.57120  0.92290  0.45250  Biso   1.000  C
  H367     1.0000 0.56070  0.92370  0.48840  Biso   1.000  H
  C371     1.0000 0.61850  0.91790  0.29070  Biso   1.000  C
  C372     1.0000 0.71810  0.94550  0.23920  Biso   1.000  C
  H368     1.0000 0.71080  0.97350  0.24690  Biso   1.000  H
  H369     1.0000 0.73290  0.94420  0.20480  Biso   1.000  H
  H370     1.0000 0.73510  0.93520  0.26870  Biso   1.000  H
  C373     1.0000 0.67950  0.91970  0.23500  Biso   1.000  C
  H371     1.0000 0.66150  0.93120  0.20630  Biso   1.000  H
  C374     1.0000 0.69130  0.87730  0.21930  Biso   1.000  C
  C375     1.0000 0.52050  0.87040  0.43460  Biso   1.000  C
  C376     1.0000 0.48080  0.77400  0.38670  Biso   1.000  C
  H372     1.0000 0.47310  0.78690  0.35230  Biso   1.000  H
  H373     1.0000 0.45920  0.75600  0.39860  Biso   1.000  H
  H374     1.0000 0.50550  0.75850  0.38140  Biso   1.000  H
  C377     1.0000 0.48780  0.80600  0.42950  Biso   1.000  C
  H375     1.0000 0.46190  0.82110  0.43380  Biso   1.000  H
  C378     1.0000 0.49760  0.78770  0.48420  Biso   1.000  C
  C379     1.0000 0.76440  0.00880  0.46650  Biso   1.000  C
  C380     1.0000 0.76200  0.01700  0.40580  Biso   1.000  C
  H376     1.0000 0.77350  0.04430  0.39830  Biso   1.000  H
  C381     1.0000 0.71960  0.01650  0.38840  Biso   1.000  C
  H377     1.0000 0.71710  0.02990  0.35310  Biso   1.000  H
  H378     1.0000 0.70320  0.03070  0.41550  Biso   1.000  H
  H379     1.0000 0.71040  0.98860  0.38530  Biso   1.000  H
  C382     1.0000 0.82560  0.98980  0.37210  Biso   1.000  C
  C383     1.0000 0.84610  0.95560  0.34350  Biso   1.000  C
  C384     1.0000 0.88230  0.94270  0.36280  Biso   1.000  C
  H380     1.0000 0.89280  0.95440  0.39510  Biso   1.000  H
  C385     1.0000 0.90450  0.91270  0.33640  Biso   1.000  C
  C386     1.0000 0.88720  0.89450  0.29060  Biso   1.000  C
  H381     1.0000 0.90110  0.87330  0.27280  Biso   1.000  H
  C387     1.0000 0.85000  0.90680  0.27060  Biso   1.000  C
  C388     1.0000 0.83090  0.93800  0.29640  Biso   1.000  C
  H382     1.0000 0.80640  0.94790  0.28170  Biso   1.000  H
  C389     1.0000 0.94490  0.89740  0.35770  Biso   1.000  C
  C390     1.0000 0.99680  0.89820  0.49050  Biso   1.000  C
  H383     1.0000 0.98120  0.92260  0.49820  Biso   1.000  H
  H384     1.0000 0.02550  0.90390  0.49490  Biso   1.000  H
  H385     1.0000 0.98880  0.87680  0.51580  Biso   1.000  H
  C391     1.0000 0.98830  0.88400  0.42960  Biso   1.000  C
  H386     1.0000 0.01040  0.89410  0.40560  Biso   1.000  H
  C392     1.0000 0.98910  0.83520  0.43000  Biso   1.000  C
  C393     1.0000 0.83250  0.88930  0.21980  Biso   1.000  C
  C394     1.0000 0.84530  0.79340  0.15020  Biso   1.000  C
  H387     1.0000 0.87190  0.79920  0.13480  Biso   1.000  H
  H388     1.0000 0.82960  0.77770  0.12390  Biso   1.000  H
  H389     1.0000 0.84840  0.77800  0.18390  Biso   1.000  H
  C395     1.0000 0.82420  0.83170  0.16190  Biso   1.000  C
  H390     1.0000 0.82700  0.84940  0.12920  Biso   1.000  H
  C396     1.0000 0.77920  0.82540  0.17210  Biso   1.000  C
  C397     1.0000 0.63586  0.78920  0.20420  Biso   1.000  C
  C398     1.0000 0.58840  0.78270  0.21660  Biso   1.000  C
  H391     1.0000 0.57370  0.77710  0.18190  Biso   1.000  H
  C399     1.0000 0.57400  0.82140  0.24060  Biso   1.000  C
  H392     1.0000 0.54610  0.81840  0.25260  Biso   1.000  H
  H393     1.0000 0.57570  0.84280  0.21320  Biso   1.000  H
  H394     1.0000 0.59090  0.82850  0.27190  Biso   1.000  H
  C400     1.0000 0.59340  0.71290  0.23980  Biso   1.000  C
  C401     1.0000 0.58980  0.67990  0.28080  Biso   1.000  C
  C402     1.0000 0.61450  0.64770  0.27670  Biso   1.000  C
  H395     1.0000 0.63350  0.64630  0.24790  Biso   1.000  H
  C403     1.0000 0.61220  0.61650  0.31430  Biso   1.000  C
  C404     1.0000 0.58400  0.61990  0.35730  Biso   1.000  C
  H396     1.0000 0.58210  0.59900  0.38370  Biso   1.000  H
  C405     1.0000 0.55960  0.65240  0.36140  Biso   1.000  C
  C406     1.0000 0.56190  0.68320  0.32390  Biso   1.000  C
  H397     1.0000 0.54510  0.70620  0.32710  Biso   1.000  H
  C407     1.0000 0.63620  0.57780  0.31120  Biso   1.000  C
  C408     1.0000 0.73200  0.55580  0.24540  Biso   1.000  C
  H398     1.0000 0.72070  0.56110  0.20920  Biso   1.000  H
  H399     1.0000 0.75020  0.53270  0.24350  Biso   1.000  H
  H400     1.0000 0.74690  0.57950  0.25790  Biso   1.000  H
  C409     1.0000 0.69870  0.54700  0.28440  Biso   1.000  C
  H401     1.0000 0.68290  0.52350  0.27070  Biso   1.000  H
  C410     1.0000 0.71720  0.53610  0.34140  Biso   1.000  C
  C411     1.0000 0.52920  0.65640  0.40810  Biso   1.000  C
  C412     1.0000 0.52550  0.61520  0.54630  Biso   1.000  C
  H402     1.0000 0.52430  0.58730  0.53350  Biso   1.000  H
  H403     1.0000 0.50720  0.61860  0.57720  Biso   1.000  H
  H404     1.0000 0.55310  0.62160  0.55770  Biso   1.000  H
  C413     1.0000 0.51310  0.64350  0.50040  Biso   1.000  C
  H405     1.0000 0.48480  0.63710  0.48940  Biso   1.000  H
  C414     1.0000 0.51410  0.68560  0.52520  Biso   1.000  C
  C415     1.0000 0.52040  0.81940  0.62100  Biso   1.000  C
  C416     1.0000 0.52350  0.86010  0.64860  Biso   1.000  C
  H406     1.0000 0.50110  0.86300  0.67560  Biso   1.000  H
  C417     1.0000 0.51950  0.89440  0.60390  Biso   1.000  C
  H407     1.0000 0.53750  0.91670  0.61300  Biso   1.000  H
  H408     1.0000 0.49160  0.90410  0.60280  Biso   1.000  H
  H409     1.0000 0.52680  0.88350  0.56810  Biso   1.000  H
  C418     1.0000 0.56970  0.85240  0.72400  Biso   1.000  C
  C419     1.0000 0.61120  0.85900  0.74630  Biso   1.000  C
  C420     1.0000 0.62660  0.82940  0.78100  Biso   1.000  C
  H410     1.0000 0.61100  0.80630  0.78910  Biso   1.000  H
  C421     1.0000 0.66450  0.83380  0.80360  Biso   1.000  C
  C422     1.0000 0.68760  0.86882  0.79190  Biso   1.000  C
  H411     1.0000 0.71370  0.87240  0.80670  Biso   1.000  H
  C423     1.0000 0.67040  0.89760  0.75830  Biso   1.000  C
  C424     1.0000 0.63280  0.89230  0.73590  Biso   1.000  C
  H412     1.0000 0.62200  0.91250  0.71270  Biso   1.000  H
  C425     1.0000 0.68170  0.80220  0.83940  Biso   1.000  C
  C426     1.0000 0.66670  0.69510  0.85580  Biso   1.000  C
  H413     1.0000 0.63910  0.70100  0.86760  Biso   1.000  H
  H414     1.0000 0.67800  0.67370  0.87870  Biso   1.000  H
  H415     1.0000 0.66640  0.68620  0.81770  Biso   1.000  H
  C427     1.0000 0.69200  0.73220  0.86100  Biso   1.000  C
  H416     1.0000 0.69250  0.74060  0.90010  Biso   1.000  H
  C428     1.0000 0.73480  0.72270  0.84310  Biso   1.000  C
  C429     1.0000 0.69270  0.93710  0.74640  Biso   1.000  C
  C430     1.0000 0.79760  0.96770  0.75120  Biso   1.000  C
  H417     1.0000 0.79650  0.96220  0.79040  Biso   1.000  H
  H418     1.0000 0.81230  0.99280  0.74480  Biso   1.000  H
  H419     1.0000 0.81150  0.94550  0.73280  Biso   1.000  H
  C431     1.0000 0.75638  0.97131  0.72960  Biso   1.000  C
  H420     1.0000 0.74320  0.99500  0.74710  Biso   1.000  H
  C432     1.0000 0.75730  0.97820  0.66820  Biso   1.000  C
  N61      1.0000 0.62060  0.96970  0.53020  Biso   1.000  N
  H421     1.0000 0.63300  0.94500  0.53340  Biso   1.000  H
  N62      1.0000 0.65900  0.92072  0.28700  Biso   1.000  N
  H422     1.0000 0.66920  0.89970  0.30720  Biso   1.000  H
  N63      1.0000 0.51787  0.83475  0.41150  Biso   1.000  N
  H423     1.0000 0.54250  0.82250  0.41600  Biso   1.000  H
  N64      1.0000 0.78500  0.98736  0.37590  Biso   1.000  N
  H424     1.0000 0.77930  0.96280  0.39150  Biso   1.000  H
  N65      1.0000 0.95130  0.89910  0.41020  Biso   1.000  N
  H425     1.0000 0.93120  0.88470  0.42700  Biso   1.000  H
  N66      1.0000 0.84235  0.85259  0.20780  Biso   1.000  N
  H426     1.0000 0.83690  0.83740  0.23820  Biso   1.000  H
  N67      1.0000 0.58367  0.74998  0.25320  Biso   1.000  N
  H427     1.0000 0.59850  0.75630  0.28370  Biso   1.000  H
  N68      1.0000 0.67280  0.58140  0.28840  Biso   1.000  N
  H428     1.0000 0.68650  0.60070  0.30790  Biso   1.000  H
  N69      1.0000 0.53880  0.63790  0.45460  Biso   1.000  N
  H429     1.0000 0.56390  0.64710  0.46440  Biso   1.000  H
  N70      1.0000 0.56140  0.86778  0.67530  Biso   1.000  N
  H430     1.0000 0.58110  0.85870  0.65200  Biso   1.000  H
  N71      1.0000 0.67439  0.76405  0.82960  Biso   1.000  N
  H431     1.0000 0.68180  0.75960  0.79400  Biso   1.000  H
  N72      1.0000 0.73349  0.93528  0.74360  Biso   1.000  N
  H432     1.0000 0.73970  0.91600  0.71810  Biso   1.000  H
  O181     1.0000 0.70351  0.02721  0.58043  Biso   1.000  O
  O182     1.0000 0.70129  0.96421  0.54920  Biso   1.000  O
  O183     1.0000 0.63490  0.01079  0.46060  Biso   1.000  O
  O184     1.0000 0.69537  0.87122  0.16758  Biso   1.000  O
  O185     1.0000 0.69648  0.85138  0.25505  Biso   1.000  O
  O186     1.0000 0.59770  0.91430  0.25150  Biso   1.000  O
  O187     1.0000 0.46903  0.77402  0.51240  Biso   1.000  O
  O188     1.0000 0.53465  0.78648  0.49726  Biso   1.000  O
  O189     1.0000 0.49669  0.88194  0.46790  Biso   1.000  O
  O190     1.0000 0.75886  0.03809  0.49820  Biso   1.000  O
  O191     1.0000 0.76836  0.97245  0.48186  Biso   1.000  O
  O192     1.0000 0.84400  0.01720  0.39330  Biso   1.000  O
  O193     1.0000 0.02394  0.82182  0.42850  Biso   1.000  O
  O194     1.0000 0.95735  0.81843  0.43060  Biso   1.000  O
  O195     1.0000 0.96990  0.88650  0.32310  Biso   1.000  O
  O196     1.0000 0.75716  0.82258  0.13010  Biso   1.000  O
  O197     1.0000 0.76833  0.81826  0.22018  Biso   1.000  O
  O198     1.0000 0.80946  0.90907  0.19220  Biso   1.000  O
  O199     1.0000 0.64348  0.80635  0.16020  Biso   1.000  O
  O200     1.0000 0.65925  0.77833  0.23960  Biso   1.000  O
  O201     1.0000 0.60626  0.70386  0.19237  Biso   1.000  O
  O202     1.0000 0.72695  0.49965  0.34736  Biso   1.000  O
  O203     1.0000 0.72225  0.56450  0.37419  Biso   1.000  O
  O204     1.0000 0.62400  0.54656  0.32780  Biso   1.000  O
  O205     1.0000 0.48312  0.69679  0.55120  Biso   1.000  O
  O206     1.0000 0.54549  0.70565  0.51920  Biso   1.000  O
  O207     1.0000 0.49890  0.67533  0.40100  Biso   1.000  O
  O208     1.0000 0.48593  0.80553  0.61450  Biso   1.000  O
  O209     1.0000 0.55309  0.80351  0.60540  Biso   1.000  O
  O210     1.0000 0.54318  0.83355  0.75020  Biso   1.000  O
  O211     1.0000 0.75744  0.70569  0.87740  Biso   1.000  O
  O212     1.0000 0.74466  0.73121  0.79346  Biso   1.000  O
  O213     1.0000 0.70270  0.81295  0.88000  Biso   1.000  O
  O214     1.0000 0.76430  0.01510  0.65482  Biso   1.000  O
  O215     1.0000 0.75130  0.95019  0.63680  Biso   1.000  O
  O216     1.0000 0.67331  0.96889  0.74310  Biso   1.000  O
  Cu37     1.0000 0.96817  0.23733  0.42209  Biso   1.000  Cu
  Cu38     1.0000 0.04589  0.24005  0.44255  Biso   1.000  Cu
  Cu39     1.0000 0.18442  0.30069  0.86298  Biso   1.000  Cu
  Cu40     1.0000 0.20396  0.28443  0.76124  Biso   1.000  Cu
  Cu41     1.0000 0.24953  0.52069  0.41538  Biso   1.000  Cu
  Cu42     1.0000 0.24438  0.44399  0.44081  Biso   1.000  Cu
  C433     1.0000 0.00420  0.31630  0.43460  Biso   1.000  C
  C434     1.0000 0.00490  0.36090  0.43000  Biso   1.000  C
  H433     1.0000 0.97690  0.37070  0.43670  Biso   1.000  H
  C435     1.0000 0.01610  0.37270  0.37210  Biso   1.000  C
  H434     1.0000 0.01470  0.40200  0.36840  Biso   1.000  H
  H435     1.0000 0.99730  0.36010  0.34650  Biso   1.000  H
  H436     1.0000 0.04350  0.36350  0.36420  Biso   1.000  H
  C436     1.0000 0.02160  0.37950  0.52170  Biso   1.000  C
  C437     1.0000 0.05130  0.39730  0.56150  Biso   1.000  C
  C438     1.0000 0.05360  0.38100  0.61460  Biso   1.000  C
  H437     1.0000 0.03740  0.35860  0.62460  Biso   1.000  H
  C439     1.0000 0.07910  0.39760  0.65080  Biso   1.000  C
  C440     1.0000 0.10660  0.42920  0.63730  Biso   1.000  C
  H438     1.0000 0.12600  0.43900  0.66250  Biso   1.000  H
  C441     1.0000 0.10330  0.44480  0.58410  Biso   1.000  C
  C442     1.0000 0.07710  0.42880  0.54750  Biso   1.000  C
  H439     1.0000 0.07630  0.43930  0.51160  Biso   1.000  H
  C443     1.0000 0.08210  0.38150  0.70930  Biso   1.000  C
  C444     1.0000 0.05450  0.28190  0.76080  Biso   1.000  C
  H440     1.0000 0.02650  0.28920  0.75310  Biso   1.000  H
  H441     1.0000 0.05580  0.26710  0.79520  Biso   1.000  H
  H442     1.0000 0.06480  0.26490  0.73130  Biso   1.000  H
  C445     1.0000 0.08030  0.32050  0.76500  Biso   1.000  C
  H443     1.0000 0.06880  0.33850  0.79370  Biso   1.000  H
  C446     1.0000 0.12270  0.30870  0.78070  Biso   1.000  C
  C447     1.0000 0.12960  0.47950  0.56540  Biso   1.000  C
  C448     1.0000 0.22600  0.51920  0.61330  Biso   1.000  C
  H444     1.0000 0.21310  0.52690  0.64770  Biso   1.000  H
  H445     1.0000 0.24400  0.54080  0.60140  Biso   1.000  H
  H446     1.0000 0.24150  0.49450  0.61860  Biso   1.000  H
  C449     1.0000 0.19400  0.51220  0.57050  Biso   1.000  C
  H447     1.0000 0.17890  0.53810  0.56620  Biso   1.000  H
  C450     1.0000 0.21230  0.50240  0.51580  Biso   1.000  C
  C451     1.0000 0.99120  0.23560  0.53350  Biso   1.000  C
  C452     1.0000 0.98300  0.23800  0.59420  Biso   1.000  C
  H448     1.0000 0.95570  0.22650  0.60170  Biso   1.000  H
  C453     1.0000 0.98350  0.28040  0.61160  Biso   1.000  C
  H449     1.0000 0.97010  0.28290  0.64690  Biso   1.000  H
  H450     1.0000 0.96930  0.29680  0.58450  Biso   1.000  H
  H451     1.0000 0.01140  0.28960  0.61470  Biso   1.000  H
  C454     1.0000 0.01020  0.17440  0.62790  Biso   1.000  C
  C455     1.0000 0.04440  0.15390  0.65650  Biso   1.000  C
  C456     1.0000 0.05730  0.11770  0.63720  Biso   1.000  C
  H452     1.0000 0.04560  0.10720  0.60490  Biso   1.000  H
  C457     1.0000 0.08730  0.09550  0.66360  Biso   1.000  C
  C458     1.0000 0.10550  0.11280  0.70940  Biso   1.000  C
  H453     1.0000 0.12670  0.09890  0.72720  Biso   1.000  H
  C459     1.0000 0.09320  0.15000  0.72940  Biso   1.000  C
  C460     1.0000 0.06200  0.16910  0.70360  Biso   1.000  C
  H454     1.0000 0.05210  0.19360  0.71830  Biso   1.000  H
  C461     1.0000 0.10260  0.05510  0.64230  Biso   1.000  C
  C462     1.0000 0.10180  0.00320  0.50950  Biso   1.000  C
  H455     1.0000 0.07740  0.01880  0.50180  Biso   1.000  H
  H456     1.0000 0.09610  0.97450  0.50510  Biso   1.000  H
  H457     1.0000 0.12320  0.01120  0.48420  Biso   1.000  H
  C463     1.0000 0.11600  0.01170  0.57040  Biso   1.000  C
  H458     1.0000 0.10590  0.98960  0.59440  Biso   1.000  H
  C464     1.0000 0.16480  0.01090  0.57000  Biso   1.000  C
  C465     1.0000 0.11070  0.16750  0.78020  Biso   1.000  C
  C466     1.0000 0.20660  0.15470  0.84980  Biso   1.000  C
  H459     1.0000 0.20080  0.12810  0.86520  Biso   1.000  H
  H460     1.0000 0.22230  0.17040  0.87610  Biso   1.000  H
  H461     1.0000 0.22200  0.15160  0.81610  Biso   1.000  H
  C467     1.0000 0.16830  0.17580  0.83810  Biso   1.000  C
  H462     1.0000 0.15060  0.17300  0.87080  Biso   1.000  H
  C468     1.0000 0.17460  0.22080  0.82790  Biso   1.000  C
  C469     1.0000 0.21080  0.36414  0.79580  Biso   1.000  C
  C470     1.0000 0.21730  0.41160  0.78340  Biso   1.000  C
  H463     1.0000 0.22290  0.42630  0.81810  Biso   1.000  H
  C471     1.0000 0.17860  0.42600  0.75940  Biso   1.000  C
  H464     1.0000 0.18160  0.45390  0.74740  Biso   1.000  H
  H465     1.0000 0.15720  0.42430  0.78680  Biso   1.000  H
  H466     1.0000 0.17150  0.40910  0.72810  Biso   1.000  H
  C472     1.0000 0.28710  0.40660  0.76020  Biso   1.000  C
  C473     1.0000 0.32010  0.41020  0.71920  Biso   1.000  C
  C474     1.0000 0.35230  0.38550  0.72330  Biso   1.000  C
  H467     1.0000 0.35370  0.36650  0.75210  Biso   1.000  H
  C475     1.0000 0.38350  0.38780  0.68570  Biso   1.000  C
  C476     1.0000 0.38010  0.41600  0.64270  Biso   1.000  C
  H468     1.0000 0.40100  0.41790  0.61630  Biso   1.000  H
  C477     1.0000 0.34760  0.44040  0.63860  Biso   1.000  C
  C478     1.0000 0.31680  0.43810  0.67610  Biso   1.000  C
  H469     1.0000 0.29380  0.45490  0.67290  Biso   1.000  H
  C479     1.0000 0.42220  0.36380  0.68880  Biso   1.000  C
  C480     1.0000 0.44420  0.26800  0.75460  Biso   1.000  C
  H470     1.0000 0.43890  0.27930  0.79080  Biso   1.000  H
  H471     1.0000 0.46730  0.24980  0.75650  Biso   1.000  H
  H472     1.0000 0.42050  0.25310  0.74210  Biso   1.000  H
  C481     1.0000 0.45300  0.30130  0.71560  Biso   1.000  C
  H473     1.0000 0.47650  0.31710  0.72930  Biso   1.000  H
  C482     1.0000 0.46390  0.28280  0.65860  Biso   1.000  C
  C483     1.0000 0.34360  0.47080  0.59190  Biso   1.000  C
  C484     1.0000 0.38480  0.47450  0.45370  Biso   1.000  C
  H474     1.0000 0.41270  0.47570  0.46650  Biso   1.000  H
  H475     1.0000 0.38140  0.49280  0.42280  Biso   1.000  H
  H476     1.0000 0.37840  0.44690  0.44230  Biso   1.000  H
  C485     1.0000 0.35650  0.48690  0.49960  Biso   1.000  C
  H477     1.0000 0.36290  0.51520  0.51060  Biso   1.000  H
  C486     1.0000 0.31440  0.48590  0.47480  Biso   1.000  C
  C487     1.0000 0.18060  0.47960  0.37900  Biso   1.000  C
  C488     1.0000 0.13990  0.47650  0.35140  Biso   1.000  C
  H478     1.0000 0.13700  0.49890  0.32440  Biso   1.000  H
  C489     1.0000 0.10560  0.48050  0.39610  Biso   1.000  C
  H479     1.0000 0.08330  0.46250  0.38700  Biso   1.000  H
  H480     1.0000 0.09590  0.50840  0.39720  Biso   1.000  H
  H481     1.0000 0.11650  0.47320  0.43190  Biso   1.000  H
  C490     1.0000 0.14760  0.43030  0.27600  Biso   1.000  C
  C491     1.0000 0.14100  0.38880  0.25370  Biso   1.000  C
  C492     1.0000 0.17060  0.37340  0.21900  Biso   1.000  C
  H482     1.0000 0.19370  0.38900  0.21090  Biso   1.000  H
  C493     1.0000 0.16620  0.33550  0.19640  Biso   1.000  C
  C494     1.0000 0.13118  0.31240  0.20810  Biso   1.000  C
  H483     1.0000 0.12760  0.28630  0.19330  Biso   1.000  H
  C495     1.0000 0.10240  0.32960  0.24170  Biso   1.000  C
  C496     1.0000 0.10770  0.36720  0.26410  Biso   1.000  C
  H484     1.0000 0.08750  0.37800  0.28730  Biso   1.000  H
  C497     1.0000 0.19780  0.31830  0.16060  Biso   1.000  C
  C498     1.0000 0.30490  0.33330  0.14420  Biso   1.000  C
  H485     1.0000 0.29900  0.36090  0.13240  Biso   1.000  H
  H486     1.0000 0.32630  0.32200  0.12130  Biso   1.000  H
  H487     1.0000 0.31380  0.33360  0.18230  Biso   1.000  H
  C499     1.0000 0.26780  0.30800  0.13900  Biso   1.000  C
  H488     1.0000 0.25940  0.30750  0.09990  Biso   1.000  H
  C500     1.0000 0.27730  0.26520  0.15690  Biso   1.000  C
  C501     1.0000 0.06290  0.30730  0.25360  Biso   1.000  C
  C502     1.0000 0.03230  0.20240  0.24880  Biso   1.000  C
  H489     1.0000 0.03780  0.20350  0.20960  Biso   1.000  H
  H490     1.0000 0.00720  0.18770  0.25520  Biso   1.000  H
  H491     1.0000 0.05450  0.18850  0.26720  Biso   1.000  H
  C503     1.0000 0.02869  0.24362  0.27040  Biso   1.000  C
  H492     1.0000 0.00500  0.25680  0.25290  Biso   1.000  H
  C504     1.0000 0.02180  0.24270  0.33180  Biso   1.000  C
  N73      1.0000 0.03030  0.37940  0.46980  Biso   1.000  N
  H493     1.0000 0.05500  0.36700  0.46660  Biso   1.000  H
  N74      1.0000 0.07928  0.34100  0.71300  Biso   1.000  N
  H494     1.0000 0.10030  0.33080  0.69280  Biso   1.000  H
  N75      1.0000 0.16525  0.48213  0.58850  Biso   1.000  N
  H495     1.0000 0.17750  0.45750  0.58400  Biso   1.000  H
  N76      1.0000 0.01264  0.21500  0.62410  Biso   1.000  N
  H496     1.0000 0.03720  0.22070  0.60850  Biso   1.000  H
  N77      1.0000 0.10090  0.04870  0.58980  Biso   1.000  N
  H497     1.0000 0.11530  0.06880  0.57300  Biso   1.000  H
  N78      1.0000 0.14741  0.15765  0.79220  Biso   1.000  N
  H498     1.0000 0.16260  0.16310  0.76180  Biso   1.000  H
  N79      1.0000 0.25002  0.41633  0.74680  Biso   1.000  N
  H499     1.0000 0.24370  0.40150  0.71630  Biso   1.000  H
  N80      1.0000 0.41860  0.32720  0.71160  Biso   1.000  N
  H500     1.0000 0.39930  0.31350  0.69210  Biso   1.000  H
  N81      1.0000 0.36210  0.46120  0.54540  Biso   1.000  N
  H501     1.0000 0.35290  0.43610  0.53560  Biso   1.000  H
  N82      1.0000 0.13222  0.43860  0.32470  Biso   1.000  N
  H502     1.0000 0.14130  0.41890  0.34800  Biso   1.000  H
  N83      1.0000 0.23595  0.32561  0.17040  Biso   1.000  N
  H503     1.0000 0.24040  0.31820  0.20600  Biso   1.000  H
  N84      1.0000 0.06472  0.26651  0.25640  Biso   1.000  N
  H504     1.0000 0.08400  0.26030  0.28190  Biso   1.000  H
  O217     1.0000 0.97279  0.29649  0.41957  Biso   1.000  O
  O218     1.0000 0.03579  0.29871  0.45080  Biso   1.000  O
  O219     1.0000 0.98921  0.36510  0.53940  Biso   1.000  O
  O220     1.0000 0.12878  0.30463  0.83242  Biso   1.000  O
  O221     1.0000 0.14862  0.30352  0.74495  Biso   1.000  O
  O222     1.0000 0.08570  0.40230  0.74850  Biso   1.000  O
  O223     1.0000 0.22598  0.53097  0.48760  Biso   1.000  O
  O224     1.0000 0.21352  0.46535  0.50274  Biso   1.000  O
  O225     1.0000 0.11806  0.50331  0.53210  Biso   1.000  O
  O226     1.0000 0.96191  0.24114  0.50180  Biso   1.000  O
  O227     1.0000 0.02755  0.23164  0.51814  Biso   1.000  O
  O228     1.0000 0.98280  0.15600  0.60670  Biso   1.000  O
  O229     1.0000 0.17818  0.97606  0.57150  Biso   1.000  O
  O230     1.0000 0.18157  0.04265  0.56940  Biso   1.000  O
  O231     1.0000 0.11350  0.03010  0.67690  Biso   1.000  O
  O232     1.0000 0.17742  0.24284  0.86990  Biso   1.000  O
  O233     1.0000 0.18174  0.23167  0.77982  Biso   1.000  O
  O234     1.0000 0.09093  0.19054  0.80780  Biso   1.000  O
  O235     1.0000 0.19365  0.35652  0.83980  Biso   1.000  O
  O236     1.0000 0.22167  0.34075  0.76040  Biso   1.000  O
  O237     1.0000 0.29614  0.39374  0.80763  Biso   1.000  O
  O238     1.0000 0.50035  0.27305  0.65264  Biso   1.000  O
  O239     1.0000 0.43550  0.27775  0.62581  Biso   1.000  O
  O240     1.0000 0.45344  0.37600  0.67220  Biso   1.000  O
  O241     1.0000 0.30321  0.51688  0.44880  Biso   1.000  O
  O242     1.0000 0.29435  0.45451  0.48080  Biso   1.000  O
  O243     1.0000 0.32467  0.50110  0.59900  Biso   1.000  O
  O244     1.0000 0.19447  0.51407  0.38550  Biso   1.000  O
  O245     1.0000 0.19649  0.44691  0.39460  Biso   1.000  O
  O246     1.0000 0.16645  0.45682  0.24980  Biso   1.000  O
  O247     1.0000 0.29431  0.24256  0.12260  Biso   1.000  O
  O248     1.0000 0.26879  0.25534  0.20654  Biso   1.000  O
  O249     1.0000 0.18705  0.29730  0.12000  Biso   1.000  O
  O250     1.0000 0.98490  0.23570  0.34518  Biso   1.000  O
  O251     1.0000 0.04981  0.24870  0.36320  Biso   1.000  O
  O252     1.0000 0.03111  0.32669  0.25690  Biso   1.000  O
  Cu43     1.0000 0.23733  0.96817  0.57791  Biso   1.000  Cu
  Cu44     1.0000 0.24005  0.04589  0.55745  Biso   1.000  Cu
  Cu45     1.0000 0.30069  0.18442  0.13702  Biso   1.000  Cu
  Cu46     1.0000 0.28443  0.20396  0.23876  Biso   1.000  Cu
  Cu47     1.0000 0.52069  0.24953  0.58462  Biso   1.000  Cu
  Cu48     1.0000 0.44399  0.24438  0.55919  Biso   1.000  Cu
  C505     1.0000 0.31630  0.00420  0.56540  Biso   1.000  C
  C506     1.0000 0.36090  0.00490  0.57000  Biso   1.000  C
  H505     1.0000 0.37070  0.97690  0.56330  Biso   1.000  H
  C507     1.0000 0.37270  0.01610  0.62790  Biso   1.000  C
  H506     1.0000 0.40200  0.01470  0.63160  Biso   1.000  H
  H507     1.0000 0.36010  0.99730  0.65350  Biso   1.000  H
  H508     1.0000 0.36350  0.04350  0.63580  Biso   1.000  H
  C508     1.0000 0.37950  0.02160  0.47830  Biso   1.000  C
  C509     1.0000 0.39730  0.05130  0.43850  Biso   1.000  C
  C510     1.0000 0.38100  0.05360  0.38540  Biso   1.000  C
  H509     1.0000 0.35860  0.03740  0.37540  Biso   1.000  H
  C511     1.0000 0.39760  0.07910  0.34920  Biso   1.000  C
  C512     1.0000 0.42920  0.10660  0.36270  Biso   1.000  C
  H510     1.0000 0.43900  0.12600  0.33750  Biso   1.000  H
  C513     1.0000 0.44480  0.10330  0.41590  Biso   1.000  C
  C514     1.0000 0.42880  0.07710  0.45250  Biso   1.000  C
  H511     1.0000 0.43930  0.07630  0.48840  Biso   1.000  H
  C515     1.0000 0.38150  0.08210  0.29070  Biso   1.000  C
  C516     1.0000 0.28190  0.05450  0.23920  Biso   1.000  C
  H512     1.0000 0.28920  0.02650  0.24690  Biso   1.000  H
  H513     1.0000 0.26710  0.05580  0.20480  Biso   1.000  H
  H514     1.0000 0.26490  0.06480  0.26870  Biso   1.000  H
  C517     1.0000 0.32050  0.08030  0.23500  Biso   1.000  C
  H515     1.0000 0.33850  0.06880  0.20630  Biso   1.000  H
  C518     1.0000 0.30870  0.12270  0.21930  Biso   1.000  C
  C519     1.0000 0.47950  0.12960  0.43460  Biso   1.000  C
  C520     1.0000 0.51920  0.22600  0.38670  Biso   1.000  C
  H516     1.0000 0.52690  0.21310  0.35230  Biso   1.000  H
  H517     1.0000 0.54080  0.24400  0.39860  Biso   1.000  H
  H518     1.0000 0.49450  0.24150  0.38140  Biso   1.000  H
  C521     1.0000 0.51220  0.19400  0.42950  Biso   1.000  C
  H519     1.0000 0.53810  0.17890  0.43380  Biso   1.000  H
  C522     1.0000 0.50240  0.21230  0.48420  Biso   1.000  C
  C523     1.0000 0.23560  0.99120  0.46650  Biso   1.000  C
  C524     1.0000 0.23800  0.98300  0.40580  Biso   1.000  C
  H520     1.0000 0.22650  0.95570  0.39830  Biso   1.000  H
  C525     1.0000 0.28040  0.98350  0.38840  Biso   1.000  C
  H521     1.0000 0.28290  0.97010  0.35310  Biso   1.000  H
  H522     1.0000 0.29680  0.96930  0.41550  Biso   1.000  H
  H523     1.0000 0.28960  0.01140  0.38530  Biso   1.000  H
  C526     1.0000 0.17440  0.01020  0.37210  Biso   1.000  C
  C527     1.0000 0.15390  0.04440  0.34350  Biso   1.000  C
  C528     1.0000 0.11770  0.05730  0.36280  Biso   1.000  C
  H524     1.0000 0.10720  0.04560  0.39510  Biso   1.000  H
  C529     1.0000 0.09550  0.08730  0.33640  Biso   1.000  C
  C530     1.0000 0.11280  0.10550  0.29060  Biso   1.000  C
  H525     1.0000 0.09890  0.12670  0.27280  Biso   1.000  H
  C531     1.0000 0.15000  0.09320  0.27060  Biso   1.000  C
  C532     1.0000 0.16910  0.06200  0.29640  Biso   1.000  C
  H526     1.0000 0.19360  0.05210  0.28170  Biso   1.000  H
  C533     1.0000 0.05510  0.10260  0.35770  Biso   1.000  C
  C534     1.0000 0.00320  0.10180  0.49050  Biso   1.000  C
  H527     1.0000 0.01880  0.07740  0.49820  Biso   1.000  H
  H528     1.0000 0.97450  0.09610  0.49490  Biso   1.000  H
  H529     1.0000 0.01120  0.12320  0.51580  Biso   1.000  H
  C535     1.0000 0.01170  0.11600  0.42960  Biso   1.000  C
  H530     1.0000 0.98960  0.10590  0.40560  Biso   1.000  H
  C536     1.0000 0.01090  0.16480  0.43000  Biso   1.000  C
  C537     1.0000 0.16750  0.11070  0.21980  Biso   1.000  C
  C538     1.0000 0.15470  0.20660  0.15020  Biso   1.000  C
  H531     1.0000 0.12810  0.20080  0.13480  Biso   1.000  H
  H532     1.0000 0.17040  0.22230  0.12390  Biso   1.000  H
  H533     1.0000 0.15160  0.22200  0.18390  Biso   1.000  H
  C539     1.0000 0.17580  0.16830  0.16190  Biso   1.000  C
  H534     1.0000 0.17300  0.15060  0.12920  Biso   1.000  H
  C540     1.0000 0.22080  0.17460  0.17210  Biso   1.000  C
  C541     1.0000 0.36414  0.21080  0.20420  Biso   1.000  C
  C542     1.0000 0.41160  0.21730  0.21660  Biso   1.000  C
  H535     1.0000 0.42630  0.22290  0.18190  Biso   1.000  H
  C543     1.0000 0.42600  0.17860  0.24060  Biso   1.000  C
  H536     1.0000 0.45390  0.18160  0.25260  Biso   1.000  H
  H537     1.0000 0.42430  0.15720  0.21320  Biso   1.000  H
  H538     1.0000 0.40910  0.17150  0.27190  Biso   1.000  H
  C544     1.0000 0.40660  0.28710  0.23980  Biso   1.000  C
  C545     1.0000 0.41020  0.32010  0.28080  Biso   1.000  C
  C546     1.0000 0.38550  0.35230  0.27670  Biso   1.000  C
  H539     1.0000 0.36650  0.35370  0.24790  Biso   1.000  H
  C547     1.0000 0.38780  0.38350  0.31430  Biso   1.000  C
  C548     1.0000 0.41600  0.38010  0.35730  Biso   1.000  C
  H540     1.0000 0.41790  0.40100  0.38370  Biso   1.000  H
  C549     1.0000 0.44040  0.34760  0.36140  Biso   1.000  C
  C550     1.0000 0.43810  0.31680  0.32390  Biso   1.000  C
  H541     1.0000 0.45490  0.29380  0.32710  Biso   1.000  H
  C551     1.0000 0.36380  0.42220  0.31120  Biso   1.000  C
  C552     1.0000 0.26800  0.44420  0.24540  Biso   1.000  C
  H542     1.0000 0.27930  0.43890  0.20920  Biso   1.000  H
  H543     1.0000 0.24980  0.46730  0.24350  Biso   1.000  H
  H544     1.0000 0.25310  0.42050  0.25790  Biso   1.000  H
  C553     1.0000 0.30130  0.45300  0.28440  Biso   1.000  C
  H545     1.0000 0.31710  0.47650  0.27070  Biso   1.000  H
  C554     1.0000 0.28280  0.46390  0.34140  Biso   1.000  C
  C555     1.0000 0.47080  0.34360  0.40810  Biso   1.000  C
  C556     1.0000 0.47450  0.38480  0.54630  Biso   1.000  C
  H546     1.0000 0.47570  0.41270  0.53350  Biso   1.000  H
  H547     1.0000 0.49280  0.38140  0.57720  Biso   1.000  H
  H548     1.0000 0.44690  0.37840  0.55770  Biso   1.000  H
  C557     1.0000 0.48690  0.35650  0.50040  Biso   1.000  C
  H549     1.0000 0.51520  0.36290  0.48940  Biso   1.000  H
  C558     1.0000 0.48590  0.31440  0.52520  Biso   1.000  C
  C559     1.0000 0.47960  0.18060  0.62100  Biso   1.000  C
  C560     1.0000 0.47650  0.13990  0.64860  Biso   1.000  C
  H550     1.0000 0.49890  0.13700  0.67560  Biso   1.000  H
  C561     1.0000 0.48050  0.10560  0.60390  Biso   1.000  C
  H551     1.0000 0.46250  0.08330  0.61300  Biso   1.000  H
  H552     1.0000 0.50840  0.09590  0.60280  Biso   1.000  H
  H553     1.0000 0.47320  0.11650  0.56810  Biso   1.000  H
  C562     1.0000 0.43030  0.14760  0.72400  Biso   1.000  C
  C563     1.0000 0.38880  0.14100  0.74630  Biso   1.000  C
  C564     1.0000 0.37340  0.17060  0.78100  Biso   1.000  C
  H554     1.0000 0.38900  0.19370  0.78910  Biso   1.000  H
  C565     1.0000 0.33550  0.16620  0.80360  Biso   1.000  C
  C566     1.0000 0.31240  0.13118  0.79190  Biso   1.000  C
  H555     1.0000 0.28630  0.12760  0.80670  Biso   1.000  H
  C567     1.0000 0.32960  0.10240  0.75830  Biso   1.000  C
  C568     1.0000 0.36720  0.10770  0.73590  Biso   1.000  C
  H556     1.0000 0.37800  0.08750  0.71270  Biso   1.000  H
  C569     1.0000 0.31830  0.19780  0.83940  Biso   1.000  C
  C570     1.0000 0.33330  0.30490  0.85580  Biso   1.000  C
  H557     1.0000 0.36090  0.29900  0.86760  Biso   1.000  H
  H558     1.0000 0.32200  0.32630  0.87870  Biso   1.000  H
  H559     1.0000 0.33360  0.31380  0.81770  Biso   1.000  H
  C571     1.0000 0.30800  0.26780  0.86100  Biso   1.000  C
  H560     1.0000 0.30750  0.25940  0.90010  Biso   1.000  H
  C572     1.0000 0.26520  0.27730  0.84310  Biso   1.000  C
  C573     1.0000 0.30730  0.06290  0.74640  Biso   1.000  C
  C574     1.0000 0.20240  0.03230  0.75120  Biso   1.000  C
  H561     1.0000 0.20350  0.03780  0.79040  Biso   1.000  H
  H562     1.0000 0.18770  0.00720  0.74480  Biso   1.000  H
  H563     1.0000 0.18850  0.05450  0.73280  Biso   1.000  H
  C575     1.0000 0.24362  0.02869  0.72960  Biso   1.000  C
  H564     1.0000 0.25680  0.00500  0.74710  Biso   1.000  H
  C576     1.0000 0.24270  0.02180  0.66820  Biso   1.000  C
  N85      1.0000 0.37940  0.03030  0.53020  Biso   1.000  N
  H565     1.0000 0.36700  0.05500  0.53340  Biso   1.000  H
  N86      1.0000 0.34100  0.07928  0.28700  Biso   1.000  N
  H566     1.0000 0.33080  0.10030  0.30720  Biso   1.000  H
  N87      1.0000 0.48213  0.16525  0.41150  Biso   1.000  N
  H567     1.0000 0.45750  0.17750  0.41600  Biso   1.000  H
  N88      1.0000 0.21500  0.01264  0.37590  Biso   1.000  N
  H568     1.0000 0.22070  0.03720  0.39150  Biso   1.000  H
  N89      1.0000 0.04870  0.10090  0.41020  Biso   1.000  N
  H569     1.0000 0.06880  0.11530  0.42700  Biso   1.000  H
  N90      1.0000 0.15765  0.14741  0.20780  Biso   1.000  N
  H570     1.0000 0.16310  0.16260  0.23820  Biso   1.000  H
  N91      1.0000 0.41633  0.25002  0.25320  Biso   1.000  N
  H571     1.0000 0.40150  0.24370  0.28370  Biso   1.000  H
  N92      1.0000 0.32720  0.41860  0.28840  Biso   1.000  N
  H572     1.0000 0.31350  0.39930  0.30790  Biso   1.000  H
  N93      1.0000 0.46120  0.36210  0.45460  Biso   1.000  N
  H573     1.0000 0.43610  0.35290  0.46440  Biso   1.000  H
  N94      1.0000 0.43860  0.13222  0.67530  Biso   1.000  N
  H574     1.0000 0.41890  0.14130  0.65200  Biso   1.000  H
  N95      1.0000 0.32561  0.23595  0.82960  Biso   1.000  N
  H575     1.0000 0.31820  0.24040  0.79400  Biso   1.000  H
  N96      1.0000 0.26651  0.06472  0.74360  Biso   1.000  N
  H576     1.0000 0.26030  0.08400  0.71810  Biso   1.000  H
  O253     1.0000 0.29649  0.97279  0.58043  Biso   1.000  O
  O254     1.0000 0.29871  0.03579  0.54920  Biso   1.000  O
  O255     1.0000 0.36510  0.98921  0.46060  Biso   1.000  O
  O256     1.0000 0.30463  0.12878  0.16758  Biso   1.000  O
  O257     1.0000 0.30352  0.14862  0.25505  Biso   1.000  O
  O258     1.0000 0.40230  0.08570  0.25150  Biso   1.000  O
  O259     1.0000 0.53097  0.22598  0.51240  Biso   1.000  O
  O260     1.0000 0.46535  0.21352  0.49726  Biso   1.000  O
  O261     1.0000 0.50331  0.11806  0.46790  Biso   1.000  O
  O262     1.0000 0.24114  0.96191  0.49820  Biso   1.000  O
  O263     1.0000 0.23164  0.02755  0.48186  Biso   1.000  O
  O264     1.0000 0.15600  0.98280  0.39330  Biso   1.000  O
  O265     1.0000 0.97606  0.17818  0.42850  Biso   1.000  O
  O266     1.0000 0.04265  0.18157  0.43060  Biso   1.000  O
  O267     1.0000 0.03010  0.11350  0.32310  Biso   1.000  O
  O268     1.0000 0.24284  0.17742  0.13010  Biso   1.000  O
  O269     1.0000 0.23167  0.18174  0.22018  Biso   1.000  O
  O270     1.0000 0.19054  0.09093  0.19220  Biso   1.000  O
  O271     1.0000 0.35652  0.19365  0.16020  Biso   1.000  O
  O272     1.0000 0.34075  0.22167  0.23960  Biso   1.000  O
  O273     1.0000 0.39374  0.29614  0.19237  Biso   1.000  O
  O274     1.0000 0.27305  0.50035  0.34736  Biso   1.000  O
  O275     1.0000 0.27775  0.43550  0.37419  Biso   1.000  O
  O276     1.0000 0.37600  0.45344  0.32780  Biso   1.000  O
  O277     1.0000 0.51688  0.30321  0.55120  Biso   1.000  O
  O278     1.0000 0.45451  0.29435  0.51920  Biso   1.000  O
  O279     1.0000 0.50110  0.32467  0.40100  Biso   1.000  O
  O280     1.0000 0.51407  0.19447  0.61450  Biso   1.000  O
  O281     1.0000 0.44691  0.19649  0.60540  Biso   1.000  O
  O282     1.0000 0.45682  0.16645  0.75020  Biso   1.000  O
  O283     1.0000 0.24256  0.29431  0.87740  Biso   1.000  O
  O284     1.0000 0.25534  0.26879  0.79346  Biso   1.000  O
  O285     1.0000 0.29730  0.18705  0.88000  Biso   1.000  O
  O286     1.0000 0.23570  0.98490  0.65482  Biso   1.000  O
  O287     1.0000 0.24870  0.04981  0.63680  Biso   1.000  O
  O288     1.0000 0.32669  0.03111  0.74310  Biso   1.000  O
