data_image0
_cell_length_a       27.1499
_cell_length_b       27.1499
_cell_length_c       27.1499
_cell_angle_alpha    90
_cell_angle_beta     90
_cell_angle_gamma    90

_symmetry_space_group_name_H-M    "P 1"
_symmetry_int_tables_number       1

loop_
  _symmetry_equiv_pos_as_xyz
  'x, y, z'

loop_
  _atom_site_label
  _atom_site_occupancy
  _atom_site_fract_x
  _atom_site_fract_y
  _atom_site_fract_z
  _atom_site_thermal_displace_type
  _atom_site_B_iso_or_equiv
  _atom_site_type_symbol
  W1       1.0000 0.74881  0.37515  0.33330  Biso   1.000  W
  W2       1.0000 0.64351  0.42715  0.37029  Biso   1.000  W
  W3       1.0000 0.70191  0.42697  0.14611  Biso   1.000  W
  W4       1.0000 0.70607  0.47627  0.27553  Biso   1.000  W
  W5       1.0000 0.80823  0.26446  0.46943  Biso   1.000  W
  W6       1.0000 0.56804  0.31498  0.35487  Biso   1.000  W
  W7       1.0000 0.59888  0.47325  0.19117  Biso   1.000  W
  W8       1.0000 0.91633  0.20253  0.46921  Biso   1.000  W
  Co1      1.0000 0.59825  0.36976  0.13530  Biso   1.000  Co
  Sb1      1.0000 0.65193  0.35048  0.24936  Biso   1.000  Sb
  Sb2      1.0000 0.79526  0.38269  0.21404  Biso   1.000  Sb
  Sb3      1.0000 0.68628  0.27993  0.39470  Biso   1.000  Sb
  O1       1.0000 0.76010  0.26870  0.42340  Biso   1.000  O
  O2       1.0000 0.76000  0.34960  0.26680  Biso   1.000  O
  O3       1.0000 0.65890  0.48330  0.15640  Biso   1.000  O
  O4       1.0000 0.84180  0.31820  0.45250  Biso   1.000  O
  O5       1.0000 0.55750  0.44890  0.24130  Biso   1.000  O
  O6       1.0000 0.72920  0.44610  0.21620  Biso   1.000  O
  O7       1.0000 0.67710  0.39970  0.29880  Biso   1.000  O
  O8       1.0000 0.80350  0.36470  0.36450  Biso   1.000  O
  O9       1.0000 0.57030  0.44180  0.14260  Biso   1.000  O
  O10      1.0000 0.61860  0.36410  0.37960  Biso   1.000  O
  O11      1.0000 0.87650  0.14390  0.47280  Biso   1.000  O
  O12      1.0000 0.70930  0.39920  0.38580  Biso   1.000  O
  O13      1.0000 0.66360  0.39690  0.10030  Biso   1.000  O
  O14      1.0000 0.76270  0.43970  0.30800  Biso   1.000  O
  O15      1.0000 0.64680  0.49040  0.24980  Biso   1.000  O
  O16      1.0000 0.69690  0.21240  0.36810  Biso   1.000  O
  O17      1.0000 0.52550  0.28790  0.31080  Biso   1.000  O
  O18      1.0000 0.58860  0.44410  0.33460  Biso   1.000  O
  O19      1.0000 0.64120  0.39940  0.19660  Biso   1.000  O
  O20      1.0000 0.71860  0.31170  0.33980  Biso   1.000  O
  O21      1.0000 0.87040  0.23950  0.50450  Biso   1.000  O
  O22      1.0000 0.62170  0.27550  0.34390  Biso   1.000  O
  O23      1.0000 0.58440  0.35400  0.28020  Biso   1.000  O
  O24      1.0000 0.67950  0.48190  0.34290  Biso   1.000  O
  O25      1.0000 0.74070  0.36990  0.16560  Biso   1.000  O
  C1       1.0000 0.54320  0.39390  0.04550  Biso   1.000  C
  H1       1.0000 0.57230  0.41300  0.03740  Biso   1.000  H
  H2       1.0000 0.52270  0.41370  0.06700  Biso   1.000  H
  C2       1.0000 0.47210  0.35580  0.01520  Biso   1.000  C
  H3       1.0000 0.44970  0.35100  0.98780  Biso   1.000  H
  H4       1.0000 0.45560  0.37720  0.03850  Biso   1.000  H
  C3       1.0000 0.51680  0.31850  0.08090  Biso   1.000  C
  H5       1.0000 0.49910  0.33230  0.10880  Biso   1.000  H
  H6       1.0000 0.52960  0.28680  0.09130  Biso   1.000  H
  C4       1.0000 0.54060  0.35170  0.96450  Biso   1.000  C
  H7       1.0000 0.56860  0.36970  0.95160  Biso   1.000  H
  H8       1.0000 0.51980  0.34240  0.93700  Biso   1.000  H
  C5       1.0000 0.51150  0.28300  0.00910  Biso   1.000  C
  H9       1.0000 0.49320  0.27110  0.98070  Biso   1.000  H
  H10      1.0000 0.52190  0.25420  0.02750  Biso   1.000  H
  C6       1.0000 0.58780  0.32230  0.03280  Biso   1.000  C
  H11      1.0000 0.61480  0.34300  0.02190  Biso   1.000  H
  H12      1.0000 0.60180  0.29300  0.04780  Biso   1.000  H
  N1       1.0000 0.55780  0.34980  0.07110  Biso   1.000  N
  N2       1.0000 0.51390  0.38220  0.99670  Biso   1.000  N
  N3       1.0000 0.47830  0.30880  0.03880  Biso   1.000  N
  N4       1.0000 0.55770  0.30770  0.98960  Biso   1.000  N
  W9       1.0000 0.66670  0.24881  0.12485  Biso   1.000  W
  W10      1.0000 0.62971  0.14351  0.07285  Biso   1.000  W
  W11      1.0000 0.85389  0.20191  0.07303  Biso   1.000  W
  W12      1.0000 0.72447  0.20607  0.02373  Biso   1.000  W
  W13      1.0000 0.53057  0.30823  0.23554  Biso   1.000  W
  W14      1.0000 0.64513  0.06804  0.18502  Biso   1.000  W
  W15      1.0000 0.80883  0.09888  0.02675  Biso   1.000  W
  W16      1.0000 0.53079  0.41633  0.29747  Biso   1.000  W
  Co2      1.0000 0.86470  0.09825  0.13024  Biso   1.000  Co
  Sb4      1.0000 0.75064  0.15193  0.14952  Biso   1.000  Sb
  Sb5      1.0000 0.78596  0.29526  0.11731  Biso   1.000  Sb
  Sb6      1.0000 0.60530  0.18628  0.22007  Biso   1.000  Sb
  O26      1.0000 0.57660  0.26010  0.23130  Biso   1.000  O
  O27      1.0000 0.73320  0.26000  0.15040  Biso   1.000  O
  O28      1.0000 0.84360  0.15890  0.01670  Biso   1.000  O
  O29      1.0000 0.54750  0.34180  0.18180  Biso   1.000  O
  O30      1.0000 0.75870  0.05750  0.05110  Biso   1.000  O
  O31      1.0000 0.78380  0.22920  0.05390  Biso   1.000  O
  O32      1.0000 0.70120  0.17710  0.10030  Biso   1.000  O
  O33      1.0000 0.63550  0.30350  0.13530  Biso   1.000  O
  O34      1.0000 0.85740  0.07030  0.05820  Biso   1.000  O
  O35      1.0000 0.62040  0.11860  0.13590  Biso   1.000  O
  O36      1.0000 0.52720  0.37650  0.35610  Biso   1.000  O
  O37      1.0000 0.61420  0.20930  0.10080  Biso   1.000  O
  O38      1.0000 0.89970  0.16360  0.10310  Biso   1.000  O
  O39      1.0000 0.69200  0.26270  0.06030  Biso   1.000  O
  O40      1.0000 0.75020  0.14680  0.00960  Biso   1.000  O
  O41      1.0000 0.63190  0.19690  0.28760  Biso   1.000  O
  O42      1.0000 0.68920  0.02550  0.21210  Biso   1.000  O
  O43      1.0000 0.66540  0.08860  0.05590  Biso   1.000  O
  O44      1.0000 0.80340  0.14120  0.10060  Biso   1.000  O
  O45      1.0000 0.66020  0.21860  0.18830  Biso   1.000  O
  O46      1.0000 0.49550  0.37040  0.26050  Biso   1.000  O
  O47      1.0000 0.65610  0.12170  0.22450  Biso   1.000  O
  O48      1.0000 0.71980  0.08440  0.14600  Biso   1.000  O
  O49      1.0000 0.65710  0.17950  0.01810  Biso   1.000  O
  O50      1.0000 0.83440  0.24070  0.13010  Biso   1.000  O
  C7       1.0000 0.95450  0.04320  0.10610  Biso   1.000  C
  H13      1.0000 0.96260  0.07230  0.08700  Biso   1.000  H
  H14      1.0000 0.93300  0.02270  0.08630  Biso   1.000  H
  C8       1.0000 0.98480  0.97210  0.14420  Biso   1.000  C
  H15      1.0000 0.01220  0.94970  0.14900  Biso   1.000  H
  H16      1.0000 0.96150  0.95560  0.12280  Biso   1.000  H
  C9       1.0000 0.91910  0.01680  0.18150  Biso   1.000  C
  H17      1.0000 0.89120  0.99910  0.16770  Biso   1.000  H
  H18      1.0000 0.90870  0.02960  0.21320  Biso   1.000  H
  C10      1.0000 0.03550  0.04060  0.14830  Biso   1.000  C
  H19      1.0000 0.04840  0.06860  0.13030  Biso   1.000  H
  H20      1.0000 0.06300  0.01980  0.15760  Biso   1.000  H
  C11      1.0000 0.99090  0.01150  0.21700  Biso   1.000  C
  H21      1.0000 0.01930  0.99320  0.22890  Biso   1.000  H
  H22      1.0000 0.97250  0.02190  0.24580  Biso   1.000  H
  C12      1.0000 0.96720  0.08780  0.17770  Biso   1.000  C
  H23      1.0000 0.97810  0.11480  0.15700  Biso   1.000  H
  H24      1.0000 0.95220  0.10180  0.20700  Biso   1.000  H
  N5       1.0000 0.92890  0.05780  0.15020  Biso   1.000  N
  N6       1.0000 0.00330  0.01390  0.11780  Biso   1.000  N
  N7       1.0000 0.96120  0.97830  0.19120  Biso   1.000  N
  N8       1.0000 0.01040  0.05770  0.19230  Biso   1.000  N
  W17      1.0000 0.87515  0.16670  0.25119  Biso   1.000  W
  W18      1.0000 0.92715  0.12971  0.35649  Biso   1.000  W
  W19      1.0000 0.92697  0.35389  0.29809  Biso   1.000  W
  W20      1.0000 0.97627  0.22447  0.29393  Biso   1.000  W
  W21      1.0000 0.76446  0.03057  0.19177  Biso   1.000  W
  W22      1.0000 0.81498  0.14513  0.43196  Biso   1.000  W
  W23      1.0000 0.97325  0.30883  0.40112  Biso   1.000  W
  W24      1.0000 0.70253  0.03079  0.08367  Biso   1.000  W
  Co3      1.0000 0.86976  0.36470  0.40175  Biso   1.000  Co
  Sb7      1.0000 0.85048  0.25064  0.34807  Biso   1.000  Sb
  Sb8      1.0000 0.88269  0.28596  0.20474  Biso   1.000  Sb
  Sb9      1.0000 0.77993  0.10530  0.31372  Biso   1.000  Sb
  O51      1.0000 0.76870  0.07660  0.23990  Biso   1.000  O
  O52      1.0000 0.84960  0.23320  0.24000  Biso   1.000  O
  O53      1.0000 0.98330  0.34360  0.34110  Biso   1.000  O
  O54      1.0000 0.81820  0.04750  0.15820  Biso   1.000  O
  O55      1.0000 0.94890  0.25870  0.44250  Biso   1.000  O
  O56      1.0000 0.94610  0.28380  0.27080  Biso   1.000  O
  O57      1.0000 0.89970  0.20120  0.32290  Biso   1.000  O
  O58      1.0000 0.86470  0.13550  0.19650  Biso   1.000  O
  O59      1.0000 0.94180  0.35740  0.42970  Biso   1.000  O
  O60      1.0000 0.86410  0.12040  0.38140  Biso   1.000  O
  O61      1.0000 0.64390  0.02720  0.12350  Biso   1.000  O
  O62      1.0000 0.89920  0.11420  0.29070  Biso   1.000  O
  O63      1.0000 0.89690  0.39970  0.33640  Biso   1.000  O
  O64      1.0000 0.93970  0.19200  0.23730  Biso   1.000  O
  O65      1.0000 0.99040  0.25020  0.35320  Biso   1.000  O
  O66      1.0000 0.71240  0.13190  0.30310  Biso   1.000  O
  O67      1.0000 0.78790  0.18920  0.47450  Biso   1.000  O
  O68      1.0000 0.94410  0.16540  0.41140  Biso   1.000  O
  O69      1.0000 0.89940  0.30340  0.35880  Biso   1.000  O
  O70      1.0000 0.81170  0.16020  0.28140  Biso   1.000  O
  O71      1.0000 0.73950  0.99550  0.12960  Biso   1.000  O
  O72      1.0000 0.77550  0.15610  0.37830  Biso   1.000  O
  O73      1.0000 0.85400  0.21980  0.41560  Biso   1.000  O
  O74      1.0000 0.98190  0.15710  0.32050  Biso   1.000  O
  O75      1.0000 0.86990  0.33440  0.25930  Biso   1.000  O
  C13      1.0000 0.89390  0.45450  0.45680  Biso   1.000  C
  H25      1.0000 0.91300  0.46260  0.42770  Biso   1.000  H
  H26      1.0000 0.91370  0.43300  0.47730  Biso   1.000  H
  C14      1.0000 0.85580  0.48480  0.52790  Biso   1.000  C
  H27      1.0000 0.85100  0.51220  0.55030  Biso   1.000  H
  H28      1.0000 0.87720  0.46150  0.54440  Biso   1.000  H
  C15      1.0000 0.81850  0.41910  0.48320  Biso   1.000  C
  H29      1.0000 0.83230  0.39120  0.50090  Biso   1.000  H
  H30      1.0000 0.78680  0.40870  0.47040  Biso   1.000  H
  C16      1.0000 0.85170  0.53550  0.45940  Biso   1.000  C
  H31      1.0000 0.86970  0.54840  0.43140  Biso   1.000  H
  H32      1.0000 0.84240  0.56300  0.48020  Biso   1.000  H
  C17      1.0000 0.78300  0.49090  0.48850  Biso   1.000  C
  H33      1.0000 0.77110  0.51930  0.50680  Biso   1.000  H
  H34      1.0000 0.75420  0.47250  0.47810  Biso   1.000  H
  C18      1.0000 0.82230  0.46720  0.41220  Biso   1.000  C
  H35      1.0000 0.84300  0.47810  0.38520  Biso   1.000  H
  H36      1.0000 0.79300  0.45220  0.39820  Biso   1.000  H
  N9       1.0000 0.84980  0.42890  0.44220  Biso   1.000  N
  N10      1.0000 0.88220  0.50330  0.48610  Biso   1.000  N
  N11      1.0000 0.80880  0.46120  0.52170  Biso   1.000  N
  N12      1.0000 0.80770  0.51040  0.44230  Biso   1.000  N
  Co4      1.0000 0.65366  0.15366  0.34634  Biso   1.000  Co
  O76      1.0000 0.81630  0.31630  0.18370  Biso   1.000  O
  W25      1.0000 0.75119  0.62485  0.83330  Biso   1.000  W
  W26      1.0000 0.85649  0.57285  0.87029  Biso   1.000  W
  W27      1.0000 0.79809  0.57303  0.64611  Biso   1.000  W
  W28      1.0000 0.79393  0.52373  0.77553  Biso   1.000  W
  W29      1.0000 0.69177  0.73554  0.96943  Biso   1.000  W
  W30      1.0000 0.93196  0.68502  0.85487  Biso   1.000  W
  W31      1.0000 0.90112  0.52675  0.69117  Biso   1.000  W
  W32      1.0000 0.58367  0.79747  0.96921  Biso   1.000  W
  Co5      1.0000 0.90175  0.63024  0.63530  Biso   1.000  Co
  Sb10     1.0000 0.84807  0.64952  0.74936  Biso   1.000  Sb
  Sb11     1.0000 0.70474  0.61731  0.71404  Biso   1.000  Sb
  Sb12     1.0000 0.81372  0.72007  0.89470  Biso   1.000  Sb
  O77      1.0000 0.73990  0.73130  0.92340  Biso   1.000  O
  O78      1.0000 0.74000  0.65040  0.76680  Biso   1.000  O
  O79      1.0000 0.84110  0.51670  0.65640  Biso   1.000  O
  O80      1.0000 0.65820  0.68180  0.95250  Biso   1.000  O
  O81      1.0000 0.94250  0.55110  0.74130  Biso   1.000  O
  O82      1.0000 0.77080  0.55390  0.71620  Biso   1.000  O
  O83      1.0000 0.82290  0.60030  0.79880  Biso   1.000  O
  O84      1.0000 0.69650  0.63530  0.86450  Biso   1.000  O
  O85      1.0000 0.92970  0.55820  0.64260  Biso   1.000  O
  O86      1.0000 0.88140  0.63590  0.87960  Biso   1.000  O
  O87      1.0000 0.62350  0.85610  0.97280  Biso   1.000  O
  O88      1.0000 0.79070  0.60080  0.88580  Biso   1.000  O
  O89      1.0000 0.83640  0.60310  0.60030  Biso   1.000  O
  O90      1.0000 0.73730  0.56030  0.80800  Biso   1.000  O
  O91      1.0000 0.85320  0.50960  0.74980  Biso   1.000  O
  O92      1.0000 0.80310  0.78760  0.86810  Biso   1.000  O
  O93      1.0000 0.97450  0.71210  0.81080  Biso   1.000  O
  O94      1.0000 0.91140  0.55590  0.83460  Biso   1.000  O
  O95      1.0000 0.85880  0.60060  0.69660  Biso   1.000  O
  O96      1.0000 0.78140  0.68830  0.83980  Biso   1.000  O
  O97      1.0000 0.62960  0.76050  0.00450  Biso   1.000  O
  O98      1.0000 0.87830  0.72450  0.84390  Biso   1.000  O
  O99      1.0000 0.91560  0.64600  0.78020  Biso   1.000  O
  O100     1.0000 0.82050  0.51810  0.84290  Biso   1.000  O
  O101     1.0000 0.75930  0.63010  0.66560  Biso   1.000  O
  C19      1.0000 0.95680  0.60610  0.54550  Biso   1.000  C
  H37      1.0000 0.92770  0.58700  0.53740  Biso   1.000  H
  H38      1.0000 0.97730  0.58630  0.56700  Biso   1.000  H
  C20      1.0000 0.02790  0.64420  0.51520  Biso   1.000  C
  H39      1.0000 0.05030  0.64900  0.48780  Biso   1.000  H
  H40      1.0000 0.04440  0.62280  0.53850  Biso   1.000  H
  C21      1.0000 0.98320  0.68150  0.58090  Biso   1.000  C
  H41      1.0000 0.00090  0.66770  0.60880  Biso   1.000  H
  H42      1.0000 0.97040  0.71320  0.59130  Biso   1.000  H
  C22      1.0000 0.95940  0.64830  0.46450  Biso   1.000  C
  H43      1.0000 0.93140  0.63030  0.45160  Biso   1.000  H
  H44      1.0000 0.98020  0.65760  0.43700  Biso   1.000  H
  C23      1.0000 0.98850  0.71700  0.50910  Biso   1.000  C
  H45      1.0000 0.00680  0.72890  0.48070  Biso   1.000  H
  H46      1.0000 0.97810  0.74580  0.52750  Biso   1.000  H
  C24      1.0000 0.91220  0.67770  0.53280  Biso   1.000  C
  H47      1.0000 0.88520  0.65700  0.52190  Biso   1.000  H
  H48      1.0000 0.89820  0.70700  0.54780  Biso   1.000  H
  N13      1.0000 0.94220  0.65020  0.57110  Biso   1.000  N
  N14      1.0000 0.98610  0.61780  0.49670  Biso   1.000  N
  N15      1.0000 0.02170  0.69120  0.53880  Biso   1.000  N
  N16      1.0000 0.94230  0.69230  0.48960  Biso   1.000  N
  W33      1.0000 0.83330  0.75119  0.62485  Biso   1.000  W
  W34      1.0000 0.87029  0.85649  0.57285  Biso   1.000  W
  W35      1.0000 0.64611  0.79809  0.57303  Biso   1.000  W
  W36      1.0000 0.77553  0.79393  0.52373  Biso   1.000  W
  W37      1.0000 0.96943  0.69177  0.73554  Biso   1.000  W
  W38      1.0000 0.85487  0.93196  0.68502  Biso   1.000  W
  W39      1.0000 0.69117  0.90112  0.52675  Biso   1.000  W
  W40      1.0000 0.96921  0.58367  0.79747  Biso   1.000  W
  Co6      1.0000 0.63530  0.90175  0.63024  Biso   1.000  Co
  Sb13     1.0000 0.74936  0.84807  0.64952  Biso   1.000  Sb
  Sb14     1.0000 0.71404  0.70474  0.61731  Biso   1.000  Sb
  Sb15     1.0000 0.89470  0.81372  0.72007  Biso   1.000  Sb
  O102     1.0000 0.92340  0.73990  0.73130  Biso   1.000  O
  O103     1.0000 0.76680  0.74000  0.65040  Biso   1.000  O
  O104     1.0000 0.65640  0.84110  0.51670  Biso   1.000  O
  O105     1.0000 0.95250  0.65820  0.68180  Biso   1.000  O
  O106     1.0000 0.74130  0.94250  0.55110  Biso   1.000  O
  O107     1.0000 0.71620  0.77080  0.55390  Biso   1.000  O
  O108     1.0000 0.79880  0.82290  0.60030  Biso   1.000  O
  O109     1.0000 0.86450  0.69650  0.63530  Biso   1.000  O
  O110     1.0000 0.64260  0.92970  0.55820  Biso   1.000  O
  O111     1.0000 0.87960  0.88140  0.63590  Biso   1.000  O
  O112     1.0000 0.97280  0.62350  0.85610  Biso   1.000  O
  O113     1.0000 0.88580  0.79070  0.60080  Biso   1.000  O
  O114     1.0000 0.60030  0.83640  0.60310  Biso   1.000  O
  O115     1.0000 0.80800  0.73730  0.56030  Biso   1.000  O
  O116     1.0000 0.74980  0.85320  0.50960  Biso   1.000  O
  O117     1.0000 0.86810  0.80310  0.78760  Biso   1.000  O
  O118     1.0000 0.81080  0.97450  0.71210  Biso   1.000  O
  O119     1.0000 0.83460  0.91140  0.55590  Biso   1.000  O
  O120     1.0000 0.69660  0.85880  0.60060  Biso   1.000  O
  O121     1.0000 0.83980  0.78140  0.68830  Biso   1.000  O
  O122     1.0000 0.00450  0.62960  0.76050  Biso   1.000  O
  O123     1.0000 0.84390  0.87830  0.72450  Biso   1.000  O
  O124     1.0000 0.78020  0.91560  0.64600  Biso   1.000  O
  O125     1.0000 0.84290  0.82050  0.51810  Biso   1.000  O
  O126     1.0000 0.66560  0.75930  0.63010  Biso   1.000  O
  C25      1.0000 0.54550  0.95680  0.60610  Biso   1.000  C
  H49      1.0000 0.53740  0.92770  0.58700  Biso   1.000  H
  H50      1.0000 0.56700  0.97730  0.58630  Biso   1.000  H
  C26      1.0000 0.51520  0.02790  0.64420  Biso   1.000  C
  H51      1.0000 0.48780  0.05030  0.64900  Biso   1.000  H
  H52      1.0000 0.53850  0.04440  0.62280  Biso   1.000  H
  C27      1.0000 0.58090  0.98320  0.68150  Biso   1.000  C
  H53      1.0000 0.60880  0.00090  0.66770  Biso   1.000  H
  H54      1.0000 0.59130  0.97040  0.71320  Biso   1.000  H
  C28      1.0000 0.46450  0.95940  0.64830  Biso   1.000  C
  H55      1.0000 0.45160  0.93140  0.63030  Biso   1.000  H
  H56      1.0000 0.43700  0.98020  0.65760  Biso   1.000  H
  C29      1.0000 0.50910  0.98850  0.71700  Biso   1.000  C
  H57      1.0000 0.48070  0.00680  0.72890  Biso   1.000  H
  H58      1.0000 0.52750  0.97810  0.74580  Biso   1.000  H
  C30      1.0000 0.53280  0.91220  0.67770  Biso   1.000  C
  H59      1.0000 0.52190  0.88520  0.65700  Biso   1.000  H
  H60      1.0000 0.54780  0.89820  0.70700  Biso   1.000  H
  N17      1.0000 0.57110  0.94220  0.65020  Biso   1.000  N
  N18      1.0000 0.49670  0.98610  0.61780  Biso   1.000  N
  N19      1.0000 0.53880  0.02170  0.69120  Biso   1.000  N
  N20      1.0000 0.48960  0.94230  0.69230  Biso   1.000  N
  W41      1.0000 0.62485  0.83330  0.75119  Biso   1.000  W
  W42      1.0000 0.57285  0.87029  0.85649  Biso   1.000  W
  W43      1.0000 0.57303  0.64611  0.79809  Biso   1.000  W
  W44      1.0000 0.52373  0.77553  0.79393  Biso   1.000  W
  W45      1.0000 0.73554  0.96943  0.69177  Biso   1.000  W
  W46      1.0000 0.68502  0.85487  0.93196  Biso   1.000  W
  W47      1.0000 0.52675  0.69117  0.90112  Biso   1.000  W
  W48      1.0000 0.79747  0.96921  0.58367  Biso   1.000  W
  Co7      1.0000 0.63024  0.63530  0.90175  Biso   1.000  Co
  Sb16     1.0000 0.64952  0.74936  0.84807  Biso   1.000  Sb
  Sb17     1.0000 0.61731  0.71404  0.70474  Biso   1.000  Sb
  Sb18     1.0000 0.72007  0.89470  0.81372  Biso   1.000  Sb
  O127     1.0000 0.73130  0.92340  0.73990  Biso   1.000  O
  O128     1.0000 0.65040  0.76680  0.74000  Biso   1.000  O
  O129     1.0000 0.51670  0.65640  0.84110  Biso   1.000  O
  O130     1.0000 0.68180  0.95250  0.65820  Biso   1.000  O
  O131     1.0000 0.55110  0.74130  0.94250  Biso   1.000  O
  O132     1.0000 0.55390  0.71620  0.77080  Biso   1.000  O
  O133     1.0000 0.60030  0.79880  0.82290  Biso   1.000  O
  O134     1.0000 0.63530  0.86450  0.69650  Biso   1.000  O
  O135     1.0000 0.55820  0.64260  0.92970  Biso   1.000  O
  O136     1.0000 0.63590  0.87960  0.88140  Biso   1.000  O
  O137     1.0000 0.85610  0.97280  0.62350  Biso   1.000  O
  O138     1.0000 0.60080  0.88580  0.79070  Biso   1.000  O
  O139     1.0000 0.60310  0.60030  0.83640  Biso   1.000  O
  O140     1.0000 0.56030  0.80800  0.73730  Biso   1.000  O
  O141     1.0000 0.50960  0.74980  0.85320  Biso   1.000  O
  O142     1.0000 0.78760  0.86810  0.80310  Biso   1.000  O
  O143     1.0000 0.71210  0.81080  0.97450  Biso   1.000  O
  O144     1.0000 0.55590  0.83460  0.91140  Biso   1.000  O
  O145     1.0000 0.60060  0.69660  0.85880  Biso   1.000  O
  O146     1.0000 0.68830  0.83980  0.78140  Biso   1.000  O
  O147     1.0000 0.76050  0.00450  0.62960  Biso   1.000  O
  O148     1.0000 0.72450  0.84390  0.87830  Biso   1.000  O
  O149     1.0000 0.64600  0.78020  0.91560  Biso   1.000  O
  O150     1.0000 0.51810  0.84290  0.82050  Biso   1.000  O
  O151     1.0000 0.63010  0.66560  0.75930  Biso   1.000  O
  C31      1.0000 0.60610  0.54550  0.95680  Biso   1.000  C
  H61      1.0000 0.58700  0.53740  0.92770  Biso   1.000  H
  H62      1.0000 0.58630  0.56700  0.97730  Biso   1.000  H
  C32      1.0000 0.64420  0.51520  0.02790  Biso   1.000  C
  H63      1.0000 0.64900  0.48780  0.05030  Biso   1.000  H
  H64      1.0000 0.62280  0.53850  0.04440  Biso   1.000  H
  C33      1.0000 0.68150  0.58090  0.98320  Biso   1.000  C
  H65      1.0000 0.66770  0.60880  0.00090  Biso   1.000  H
  H66      1.0000 0.71320  0.59130  0.97040  Biso   1.000  H
  C34      1.0000 0.64830  0.46450  0.95940  Biso   1.000  C
  H67      1.0000 0.63030  0.45160  0.93140  Biso   1.000  H
  H68      1.0000 0.65760  0.43700  0.98020  Biso   1.000  H
  C35      1.0000 0.71700  0.50910  0.98850  Biso   1.000  C
  H69      1.0000 0.72890  0.48070  0.00680  Biso   1.000  H
  H70      1.0000 0.74580  0.52750  0.97810  Biso   1.000  H
  C36      1.0000 0.67770  0.53280  0.91220  Biso   1.000  C
  H71      1.0000 0.65700  0.52190  0.88520  Biso   1.000  H
  H72      1.0000 0.70700  0.54780  0.89820  Biso   1.000  H
  N21      1.0000 0.65020  0.57110  0.94220  Biso   1.000  N
  N22      1.0000 0.61780  0.49670  0.98610  Biso   1.000  N
  N23      1.0000 0.69120  0.53880  0.02170  Biso   1.000  N
  N24      1.0000 0.69230  0.48960  0.94230  Biso   1.000  N
  Co8      1.0000 0.84634  0.84634  0.84634  Biso   1.000  Co
  O152     1.0000 0.68370  0.68370  0.68370  Biso   1.000  O
  W49      1.0000 0.25119  0.87515  0.16670  Biso   1.000  W
  W50      1.0000 0.35649  0.92715  0.12971  Biso   1.000  W
  W51      1.0000 0.29809  0.92697  0.35389  Biso   1.000  W
  W52      1.0000 0.29393  0.97627  0.22447  Biso   1.000  W
  W53      1.0000 0.19177  0.76446  0.03057  Biso   1.000  W
  W54      1.0000 0.43196  0.81498  0.14513  Biso   1.000  W
  W55      1.0000 0.40112  0.97325  0.30883  Biso   1.000  W
  W56      1.0000 0.08367  0.70253  0.03079  Biso   1.000  W
  Co9      1.0000 0.40175  0.86976  0.36470  Biso   1.000  Co
  Sb19     1.0000 0.34807  0.85048  0.25064  Biso   1.000  Sb
  Sb20     1.0000 0.20474  0.88269  0.28596  Biso   1.000  Sb
  Sb21     1.0000 0.31372  0.77993  0.10530  Biso   1.000  Sb
  O153     1.0000 0.23990  0.76870  0.07660  Biso   1.000  O
  O154     1.0000 0.24000  0.84960  0.23320  Biso   1.000  O
  O155     1.0000 0.34110  0.98330  0.34360  Biso   1.000  O
  O156     1.0000 0.15820  0.81820  0.04750  Biso   1.000  O
  O157     1.0000 0.44250  0.94890  0.25870  Biso   1.000  O
  O158     1.0000 0.27080  0.94610  0.28380  Biso   1.000  O
  O159     1.0000 0.32290  0.89970  0.20120  Biso   1.000  O
  O160     1.0000 0.19650  0.86470  0.13550  Biso   1.000  O
  O161     1.0000 0.42970  0.94180  0.35740  Biso   1.000  O
  O162     1.0000 0.38140  0.86410  0.12040  Biso   1.000  O
  O163     1.0000 0.12350  0.64390  0.02720  Biso   1.000  O
  O164     1.0000 0.29070  0.89920  0.11420  Biso   1.000  O
  O165     1.0000 0.33640  0.89690  0.39970  Biso   1.000  O
  O166     1.0000 0.23730  0.93970  0.19200  Biso   1.000  O
  O167     1.0000 0.35320  0.99040  0.25020  Biso   1.000  O
  O168     1.0000 0.30310  0.71240  0.13190  Biso   1.000  O
  O169     1.0000 0.47450  0.78790  0.18920  Biso   1.000  O
  O170     1.0000 0.41140  0.94410  0.16540  Biso   1.000  O
  O171     1.0000 0.35880  0.89940  0.30340  Biso   1.000  O
  O172     1.0000 0.28140  0.81170  0.16020  Biso   1.000  O
  O173     1.0000 0.12960  0.73950  0.99550  Biso   1.000  O
  O174     1.0000 0.37830  0.77550  0.15610  Biso   1.000  O
  O175     1.0000 0.41560  0.85400  0.21980  Biso   1.000  O
  O176     1.0000 0.32050  0.98190  0.15710  Biso   1.000  O
  O177     1.0000 0.25930  0.86990  0.33440  Biso   1.000  O
  C37      1.0000 0.45680  0.89390  0.45450  Biso   1.000  C
  H73      1.0000 0.42770  0.91300  0.46260  Biso   1.000  H
  H74      1.0000 0.47730  0.91370  0.43300  Biso   1.000  H
  C38      1.0000 0.52790  0.85580  0.48480  Biso   1.000  C
  H75      1.0000 0.55030  0.85100  0.51220  Biso   1.000  H
  H76      1.0000 0.54440  0.87720  0.46150  Biso   1.000  H
  C39      1.0000 0.48320  0.81850  0.41910  Biso   1.000  C
  H77      1.0000 0.50090  0.83230  0.39120  Biso   1.000  H
  H78      1.0000 0.47040  0.78680  0.40870  Biso   1.000  H
  C40      1.0000 0.45940  0.85170  0.53550  Biso   1.000  C
  H79      1.0000 0.43140  0.86970  0.54840  Biso   1.000  H
  H80      1.0000 0.48020  0.84240  0.56300  Biso   1.000  H
  C41      1.0000 0.48850  0.78300  0.49090  Biso   1.000  C
  H81      1.0000 0.50680  0.77110  0.51930  Biso   1.000  H
  H82      1.0000 0.47810  0.75420  0.47250  Biso   1.000  H
  C42      1.0000 0.41220  0.82230  0.46720  Biso   1.000  C
  H83      1.0000 0.38520  0.84300  0.47810  Biso   1.000  H
  H84      1.0000 0.39820  0.79300  0.45220  Biso   1.000  H
  N25      1.0000 0.44220  0.84980  0.42890  Biso   1.000  N
  N26      1.0000 0.48610  0.88220  0.50330  Biso   1.000  N
  N27      1.0000 0.52170  0.80880  0.46120  Biso   1.000  N
  N28      1.0000 0.44230  0.80770  0.51040  Biso   1.000  N
  W57      1.0000 0.33330  0.74881  0.37515  Biso   1.000  W
  W58      1.0000 0.37029  0.64351  0.42715  Biso   1.000  W
  W59      1.0000 0.14611  0.70191  0.42697  Biso   1.000  W
  W60      1.0000 0.27553  0.70607  0.47627  Biso   1.000  W
  W61      1.0000 0.46943  0.80823  0.26446  Biso   1.000  W
  W62      1.0000 0.35487  0.56804  0.31498  Biso   1.000  W
  W63      1.0000 0.19117  0.59888  0.47325  Biso   1.000  W
  W64      1.0000 0.46921  0.91633  0.20253  Biso   1.000  W
  Co10     1.0000 0.13530  0.59825  0.36976  Biso   1.000  Co
  Sb22     1.0000 0.24936  0.65193  0.35048  Biso   1.000  Sb
  Sb23     1.0000 0.21404  0.79526  0.38269  Biso   1.000  Sb
  Sb24     1.0000 0.39470  0.68628  0.27993  Biso   1.000  Sb
  O178     1.0000 0.42340  0.76010  0.26870  Biso   1.000  O
  O179     1.0000 0.26680  0.76000  0.34960  Biso   1.000  O
  O180     1.0000 0.15640  0.65890  0.48330  Biso   1.000  O
  O181     1.0000 0.45250  0.84180  0.31820  Biso   1.000  O
  O182     1.0000 0.24130  0.55750  0.44890  Biso   1.000  O
  O183     1.0000 0.21620  0.72920  0.44610  Biso   1.000  O
  O184     1.0000 0.29880  0.67710  0.39970  Biso   1.000  O
  O185     1.0000 0.36450  0.80350  0.36470  Biso   1.000  O
  O186     1.0000 0.14260  0.57030  0.44180  Biso   1.000  O
  O187     1.0000 0.37960  0.61860  0.36410  Biso   1.000  O
  O188     1.0000 0.47280  0.87650  0.14390  Biso   1.000  O
  O189     1.0000 0.38580  0.70930  0.39920  Biso   1.000  O
  O190     1.0000 0.10030  0.66360  0.39690  Biso   1.000  O
  O191     1.0000 0.30800  0.76270  0.43970  Biso   1.000  O
  O192     1.0000 0.24980  0.64680  0.49040  Biso   1.000  O
  O193     1.0000 0.36810  0.69690  0.21240  Biso   1.000  O
  O194     1.0000 0.31080  0.52550  0.28790  Biso   1.000  O
  O195     1.0000 0.33460  0.58860  0.44410  Biso   1.000  O
  O196     1.0000 0.19660  0.64120  0.39940  Biso   1.000  O
  O197     1.0000 0.33980  0.71860  0.31170  Biso   1.000  O
  O198     1.0000 0.50450  0.87040  0.23950  Biso   1.000  O
  O199     1.0000 0.34390  0.62170  0.27550  Biso   1.000  O
  O200     1.0000 0.28020  0.58440  0.35400  Biso   1.000  O
  O201     1.0000 0.34290  0.67950  0.48190  Biso   1.000  O
  O202     1.0000 0.16560  0.74070  0.36990  Biso   1.000  O
  C43      1.0000 0.04550  0.54320  0.39390  Biso   1.000  C
  H85      1.0000 0.03740  0.57230  0.41300  Biso   1.000  H
  H86      1.0000 0.06700  0.52270  0.41370  Biso   1.000  H
  C44      1.0000 0.01520  0.47210  0.35580  Biso   1.000  C
  H87      1.0000 0.98780  0.44970  0.35100  Biso   1.000  H
  H88      1.0000 0.03850  0.45560  0.37720  Biso   1.000  H
  C45      1.0000 0.08090  0.51680  0.31850  Biso   1.000  C
  H89      1.0000 0.10880  0.49910  0.33230  Biso   1.000  H
  H90      1.0000 0.09130  0.52960  0.28680  Biso   1.000  H
  C46      1.0000 0.96450  0.54060  0.35170  Biso   1.000  C
  H91      1.0000 0.95160  0.56860  0.36970  Biso   1.000  H
  H92      1.0000 0.93700  0.51980  0.34240  Biso   1.000  H
  C47      1.0000 0.00910  0.51150  0.28300  Biso   1.000  C
  H93      1.0000 0.98070  0.49320  0.27110  Biso   1.000  H
  H94      1.0000 0.02750  0.52190  0.25420  Biso   1.000  H
  C48      1.0000 0.03280  0.58780  0.32230  Biso   1.000  C
  H95      1.0000 0.02190  0.61480  0.34300  Biso   1.000  H
  H96      1.0000 0.04780  0.60180  0.29300  Biso   1.000  H
  N29      1.0000 0.07110  0.55780  0.34980  Biso   1.000  N
  N30      1.0000 0.99670  0.51390  0.38220  Biso   1.000  N
  N31      1.0000 0.03880  0.47830  0.30880  Biso   1.000  N
  N32      1.0000 0.98960  0.55770  0.30770  Biso   1.000  N
  W65      1.0000 0.12485  0.66670  0.24881  Biso   1.000  W
  W66      1.0000 0.07285  0.62971  0.14351  Biso   1.000  W
  W67      1.0000 0.07303  0.85389  0.20191  Biso   1.000  W
  W68      1.0000 0.02373  0.72447  0.20607  Biso   1.000  W
  W69      1.0000 0.23554  0.53057  0.30823  Biso   1.000  W
  W70      1.0000 0.18502  0.64513  0.06804  Biso   1.000  W
  W71      1.0000 0.02675  0.80883  0.09888  Biso   1.000  W
  W72      1.0000 0.29747  0.53079  0.41633  Biso   1.000  W
  Co11     1.0000 0.13024  0.86470  0.09825  Biso   1.000  Co
  Sb25     1.0000 0.14952  0.75064  0.15193  Biso   1.000  Sb
  Sb26     1.0000 0.11731  0.78596  0.29526  Biso   1.000  Sb
  Sb27     1.0000 0.22007  0.60530  0.18628  Biso   1.000  Sb
  O203     1.0000 0.23130  0.57660  0.26010  Biso   1.000  O
  O204     1.0000 0.15040  0.73320  0.26000  Biso   1.000  O
  O205     1.0000 0.01670  0.84360  0.15890  Biso   1.000  O
  O206     1.0000 0.18180  0.54750  0.34180  Biso   1.000  O
  O207     1.0000 0.05110  0.75870  0.05750  Biso   1.000  O
  O208     1.0000 0.05390  0.78380  0.22920  Biso   1.000  O
  O209     1.0000 0.10030  0.70120  0.17710  Biso   1.000  O
  O210     1.0000 0.13530  0.63550  0.30350  Biso   1.000  O
  O211     1.0000 0.05820  0.85740  0.07030  Biso   1.000  O
  O212     1.0000 0.13590  0.62040  0.11860  Biso   1.000  O
  O213     1.0000 0.35610  0.52720  0.37650  Biso   1.000  O
  O214     1.0000 0.10080  0.61420  0.20930  Biso   1.000  O
  O215     1.0000 0.10310  0.89970  0.16360  Biso   1.000  O
  O216     1.0000 0.06030  0.69200  0.26270  Biso   1.000  O
  O217     1.0000 0.00960  0.75020  0.14680  Biso   1.000  O
  O218     1.0000 0.28760  0.63190  0.19690  Biso   1.000  O
  O219     1.0000 0.21210  0.68920  0.02550  Biso   1.000  O
  O220     1.0000 0.05590  0.66540  0.08860  Biso   1.000  O
  O221     1.0000 0.10060  0.80340  0.14120  Biso   1.000  O
  O222     1.0000 0.18830  0.66020  0.21860  Biso   1.000  O
  O223     1.0000 0.26050  0.49550  0.37040  Biso   1.000  O
  O224     1.0000 0.22450  0.65610  0.12170  Biso   1.000  O
  O225     1.0000 0.14600  0.71980  0.08440  Biso   1.000  O
  O226     1.0000 0.01810  0.65710  0.17950  Biso   1.000  O
  O227     1.0000 0.13010  0.83440  0.24070  Biso   1.000  O
  C49      1.0000 0.10610  0.95450  0.04320  Biso   1.000  C
  H97      1.0000 0.08700  0.96260  0.07230  Biso   1.000  H
  H98      1.0000 0.08630  0.93300  0.02270  Biso   1.000  H
  C50      1.0000 0.14420  0.98480  0.97210  Biso   1.000  C
  H99      1.0000 0.14900  0.01220  0.94970  Biso   1.000  H
  H100     1.0000 0.12280  0.96150  0.95560  Biso   1.000  H
  C51      1.0000 0.18150  0.91910  0.01680  Biso   1.000  C
  H101     1.0000 0.16770  0.89120  0.99910  Biso   1.000  H
  H102     1.0000 0.21320  0.90870  0.02960  Biso   1.000  H
  C52      1.0000 0.14830  0.03550  0.04060  Biso   1.000  C
  H103     1.0000 0.13030  0.04840  0.06860  Biso   1.000  H
  H104     1.0000 0.15760  0.06300  0.01980  Biso   1.000  H
  C53      1.0000 0.21700  0.99090  0.01150  Biso   1.000  C
  H105     1.0000 0.22890  0.01930  0.99320  Biso   1.000  H
  H106     1.0000 0.24580  0.97250  0.02190  Biso   1.000  H
  C54      1.0000 0.17770  0.96720  0.08780  Biso   1.000  C
  H107     1.0000 0.15700  0.97810  0.11480  Biso   1.000  H
  H108     1.0000 0.20700  0.95220  0.10180  Biso   1.000  H
  N33      1.0000 0.15020  0.92890  0.05780  Biso   1.000  N
  N34      1.0000 0.11780  0.00330  0.01390  Biso   1.000  N
  N35      1.0000 0.19120  0.96120  0.97830  Biso   1.000  N
  N36      1.0000 0.19230  0.01040  0.05770  Biso   1.000  N
  Co12     1.0000 0.34634  0.65366  0.15366  Biso   1.000  Co
  O228     1.0000 0.18370  0.81630  0.31630  Biso   1.000  O
  W73      1.0000 0.24881  0.12485  0.66670  Biso   1.000  W
  W74      1.0000 0.14351  0.07285  0.62971  Biso   1.000  W
  W75      1.0000 0.20191  0.07303  0.85389  Biso   1.000  W
  W76      1.0000 0.20607  0.02373  0.72447  Biso   1.000  W
  W77      1.0000 0.30823  0.23554  0.53057  Biso   1.000  W
  W78      1.0000 0.06804  0.18502  0.64513  Biso   1.000  W
  W79      1.0000 0.09888  0.02675  0.80883  Biso   1.000  W
  W80      1.0000 0.41633  0.29747  0.53079  Biso   1.000  W
  Co13     1.0000 0.09825  0.13024  0.86470  Biso   1.000  Co
  Sb28     1.0000 0.15193  0.14952  0.75064  Biso   1.000  Sb
  Sb29     1.0000 0.29526  0.11731  0.78596  Biso   1.000  Sb
  Sb30     1.0000 0.18628  0.22007  0.60530  Biso   1.000  Sb
  O229     1.0000 0.26010  0.23130  0.57660  Biso   1.000  O
  O230     1.0000 0.26000  0.15040  0.73320  Biso   1.000  O
  O231     1.0000 0.15890  0.01670  0.84360  Biso   1.000  O
  O232     1.0000 0.34180  0.18180  0.54750  Biso   1.000  O
  O233     1.0000 0.05750  0.05110  0.75870  Biso   1.000  O
  O234     1.0000 0.22920  0.05390  0.78380  Biso   1.000  O
  O235     1.0000 0.17710  0.10030  0.70120  Biso   1.000  O
  O236     1.0000 0.30350  0.13530  0.63550  Biso   1.000  O
  O237     1.0000 0.07030  0.05820  0.85740  Biso   1.000  O
  O238     1.0000 0.11860  0.13590  0.62040  Biso   1.000  O
  O239     1.0000 0.37650  0.35610  0.52720  Biso   1.000  O
  O240     1.0000 0.20930  0.10080  0.61420  Biso   1.000  O
  O241     1.0000 0.16360  0.10310  0.89970  Biso   1.000  O
  O242     1.0000 0.26270  0.06030  0.69200  Biso   1.000  O
  O243     1.0000 0.14680  0.00960  0.75020  Biso   1.000  O
  O244     1.0000 0.19690  0.28760  0.63190  Biso   1.000  O
  O245     1.0000 0.02550  0.21210  0.68920  Biso   1.000  O
  O246     1.0000 0.08860  0.05590  0.66540  Biso   1.000  O
  O247     1.0000 0.14120  0.10060  0.80340  Biso   1.000  O
  O248     1.0000 0.21860  0.18830  0.66020  Biso   1.000  O
  O249     1.0000 0.37040  0.26050  0.49550  Biso   1.000  O
  O250     1.0000 0.12170  0.22450  0.65610  Biso   1.000  O
  O251     1.0000 0.08440  0.14600  0.71980  Biso   1.000  O
  O252     1.0000 0.17950  0.01810  0.65710  Biso   1.000  O
  O253     1.0000 0.24070  0.13010  0.83440  Biso   1.000  O
  C55      1.0000 0.04320  0.10610  0.95450  Biso   1.000  C
  H109     1.0000 0.07230  0.08700  0.96260  Biso   1.000  H
  H110     1.0000 0.02270  0.08630  0.93300  Biso   1.000  H
  C56      1.0000 0.97210  0.14420  0.98480  Biso   1.000  C
  H111     1.0000 0.94970  0.14900  0.01220  Biso   1.000  H
  H112     1.0000 0.95560  0.12280  0.96150  Biso   1.000  H
  C57      1.0000 0.01680  0.18150  0.91910  Biso   1.000  C
  H113     1.0000 0.99910  0.16770  0.89120  Biso   1.000  H
  H114     1.0000 0.02960  0.21320  0.90870  Biso   1.000  H
  C58      1.0000 0.04060  0.14830  0.03550  Biso   1.000  C
  H115     1.0000 0.06860  0.13030  0.04840  Biso   1.000  H
  H116     1.0000 0.01980  0.15760  0.06300  Biso   1.000  H
  C59      1.0000 0.01150  0.21700  0.99090  Biso   1.000  C
  H117     1.0000 0.99320  0.22890  0.01930  Biso   1.000  H
  H118     1.0000 0.02190  0.24580  0.97250  Biso   1.000  H
  C60      1.0000 0.08780  0.17770  0.96720  Biso   1.000  C
  H119     1.0000 0.11480  0.15700  0.97810  Biso   1.000  H
  H120     1.0000 0.10180  0.20700  0.95220  Biso   1.000  H
  N37      1.0000 0.05780  0.15020  0.92890  Biso   1.000  N
  N38      1.0000 0.01390  0.11780  0.00330  Biso   1.000  N
  N39      1.0000 0.97830  0.19120  0.96120  Biso   1.000  N
  N40      1.0000 0.05770  0.19230  0.01040  Biso   1.000  N
  W81      1.0000 0.16670  0.25119  0.87515  Biso   1.000  W
  W82      1.0000 0.12971  0.35649  0.92715  Biso   1.000  W
  W83      1.0000 0.35389  0.29809  0.92697  Biso   1.000  W
  W84      1.0000 0.22447  0.29393  0.97627  Biso   1.000  W
  W85      1.0000 0.03057  0.19177  0.76446  Biso   1.000  W
  W86      1.0000 0.14513  0.43196  0.81498  Biso   1.000  W
  W87      1.0000 0.30883  0.40112  0.97325  Biso   1.000  W
  W88      1.0000 0.03079  0.08367  0.70253  Biso   1.000  W
  Co14     1.0000 0.36470  0.40175  0.86976  Biso   1.000  Co
  Sb31     1.0000 0.25064  0.34807  0.85048  Biso   1.000  Sb
  Sb32     1.0000 0.28596  0.20474  0.88269  Biso   1.000  Sb
  Sb33     1.0000 0.10530  0.31372  0.77993  Biso   1.000  Sb
  O254     1.0000 0.07660  0.23990  0.76870  Biso   1.000  O
  O255     1.0000 0.23320  0.24000  0.84960  Biso   1.000  O
  O256     1.0000 0.34360  0.34110  0.98330  Biso   1.000  O
  O257     1.0000 0.04750  0.15820  0.81820  Biso   1.000  O
  O258     1.0000 0.25870  0.44250  0.94890  Biso   1.000  O
  O259     1.0000 0.28380  0.27080  0.94610  Biso   1.000  O
  O260     1.0000 0.20120  0.32290  0.89970  Biso   1.000  O
  O261     1.0000 0.13550  0.19650  0.86470  Biso   1.000  O
  O262     1.0000 0.35740  0.42970  0.94180  Biso   1.000  O
  O263     1.0000 0.12040  0.38140  0.86410  Biso   1.000  O
  O264     1.0000 0.02720  0.12350  0.64390  Biso   1.000  O
  O265     1.0000 0.11420  0.29070  0.89920  Biso   1.000  O
  O266     1.0000 0.39970  0.33640  0.89690  Biso   1.000  O
  O267     1.0000 0.19200  0.23730  0.93970  Biso   1.000  O
  O268     1.0000 0.25020  0.35320  0.99040  Biso   1.000  O
  O269     1.0000 0.13190  0.30310  0.71240  Biso   1.000  O
  O270     1.0000 0.18920  0.47450  0.78790  Biso   1.000  O
  O271     1.0000 0.16540  0.41140  0.94410  Biso   1.000  O
  O272     1.0000 0.30340  0.35880  0.89940  Biso   1.000  O
  O273     1.0000 0.16020  0.28140  0.81170  Biso   1.000  O
  O274     1.0000 0.99550  0.12960  0.73950  Biso   1.000  O
  O275     1.0000 0.15610  0.37830  0.77550  Biso   1.000  O
  O276     1.0000 0.21980  0.41560  0.85400  Biso   1.000  O
  O277     1.0000 0.15710  0.32050  0.98190  Biso   1.000  O
  O278     1.0000 0.33440  0.25930  0.86990  Biso   1.000  O
  C61      1.0000 0.45450  0.45680  0.89390  Biso   1.000  C
  H121     1.0000 0.46260  0.42770  0.91300  Biso   1.000  H
  H122     1.0000 0.43300  0.47730  0.91370  Biso   1.000  H
  C62      1.0000 0.48480  0.52790  0.85580  Biso   1.000  C
  H123     1.0000 0.51220  0.55030  0.85100  Biso   1.000  H
  H124     1.0000 0.46150  0.54440  0.87720  Biso   1.000  H
  C63      1.0000 0.41910  0.48320  0.81850  Biso   1.000  C
  H125     1.0000 0.39120  0.50090  0.83230  Biso   1.000  H
  H126     1.0000 0.40870  0.47040  0.78680  Biso   1.000  H
  C64      1.0000 0.53550  0.45940  0.85170  Biso   1.000  C
  H127     1.0000 0.54840  0.43140  0.86970  Biso   1.000  H
  H128     1.0000 0.56300  0.48020  0.84240  Biso   1.000  H
  C65      1.0000 0.49090  0.48850  0.78300  Biso   1.000  C
  H129     1.0000 0.51930  0.50680  0.77110  Biso   1.000  H
  H130     1.0000 0.47250  0.47810  0.75420  Biso   1.000  H
  C66      1.0000 0.46720  0.41220  0.82230  Biso   1.000  C
  H131     1.0000 0.47810  0.38520  0.84300  Biso   1.000  H
  H132     1.0000 0.45220  0.39820  0.79300  Biso   1.000  H
  N41      1.0000 0.42890  0.44220  0.84980  Biso   1.000  N
  N42      1.0000 0.50330  0.48610  0.88220  Biso   1.000  N
  N43      1.0000 0.46120  0.52170  0.80880  Biso   1.000  N
  N44      1.0000 0.51040  0.44230  0.80770  Biso   1.000  N
  W89      1.0000 0.37515  0.33330  0.74881  Biso   1.000  W
  W90      1.0000 0.42715  0.37029  0.64351  Biso   1.000  W
  W91      1.0000 0.42697  0.14611  0.70191  Biso   1.000  W
  W92      1.0000 0.47627  0.27553  0.70607  Biso   1.000  W
  W93      1.0000 0.26446  0.46943  0.80823  Biso   1.000  W
  W94      1.0000 0.31498  0.35487  0.56804  Biso   1.000  W
  W95      1.0000 0.47325  0.19117  0.59888  Biso   1.000  W
  W96      1.0000 0.20253  0.46921  0.91633  Biso   1.000  W
  Co15     1.0000 0.36976  0.13530  0.59825  Biso   1.000  Co
  Sb34     1.0000 0.35048  0.24936  0.65193  Biso   1.000  Sb
  Sb35     1.0000 0.38269  0.21404  0.79526  Biso   1.000  Sb
  Sb36     1.0000 0.27993  0.39470  0.68628  Biso   1.000  Sb
  O279     1.0000 0.26870  0.42340  0.76010  Biso   1.000  O
  O280     1.0000 0.34960  0.26680  0.76000  Biso   1.000  O
  O281     1.0000 0.48330  0.15640  0.65890  Biso   1.000  O
  O282     1.0000 0.31820  0.45250  0.84180  Biso   1.000  O
  O283     1.0000 0.44890  0.24130  0.55750  Biso   1.000  O
  O284     1.0000 0.44610  0.21620  0.72920  Biso   1.000  O
  O285     1.0000 0.39970  0.29880  0.67710  Biso   1.000  O
  O286     1.0000 0.36470  0.36450  0.80350  Biso   1.000  O
  O287     1.0000 0.44180  0.14260  0.57030  Biso   1.000  O
  O288     1.0000 0.36410  0.37960  0.61860  Biso   1.000  O
  O289     1.0000 0.14390  0.47280  0.87650  Biso   1.000  O
  O290     1.0000 0.39920  0.38580  0.70930  Biso   1.000  O
  O291     1.0000 0.39690  0.10030  0.66360  Biso   1.000  O
  O292     1.0000 0.43970  0.30800  0.76270  Biso   1.000  O
  O293     1.0000 0.49040  0.24980  0.64680  Biso   1.000  O
  O294     1.0000 0.21240  0.36810  0.69690  Biso   1.000  O
  O295     1.0000 0.28790  0.31080  0.52550  Biso   1.000  O
  O296     1.0000 0.44410  0.33460  0.58860  Biso   1.000  O
  O297     1.0000 0.39940  0.19660  0.64120  Biso   1.000  O
  O298     1.0000 0.31170  0.33980  0.71860  Biso   1.000  O
  O299     1.0000 0.23950  0.50450  0.87040  Biso   1.000  O
  O300     1.0000 0.27550  0.34390  0.62170  Biso   1.000  O
  O301     1.0000 0.35400  0.28020  0.58440  Biso   1.000  O
  O302     1.0000 0.48190  0.34290  0.67950  Biso   1.000  O
  O303     1.0000 0.36990  0.16560  0.74070  Biso   1.000  O
  C67      1.0000 0.39390  0.04550  0.54320  Biso   1.000  C
  H133     1.0000 0.41300  0.03740  0.57230  Biso   1.000  H
  H134     1.0000 0.41370  0.06700  0.52270  Biso   1.000  H
  C68      1.0000 0.35580  0.01520  0.47210  Biso   1.000  C
  H135     1.0000 0.35100  0.98780  0.44970  Biso   1.000  H
  H136     1.0000 0.37720  0.03850  0.45560  Biso   1.000  H
  C69      1.0000 0.31850  0.08090  0.51680  Biso   1.000  C
  H137     1.0000 0.33230  0.10880  0.49910  Biso   1.000  H
  H138     1.0000 0.28680  0.09130  0.52960  Biso   1.000  H
  C70      1.0000 0.35170  0.96450  0.54060  Biso   1.000  C
  H139     1.0000 0.36970  0.95160  0.56860  Biso   1.000  H
  H140     1.0000 0.34240  0.93700  0.51980  Biso   1.000  H
  C71      1.0000 0.28300  0.00910  0.51150  Biso   1.000  C
  H141     1.0000 0.27110  0.98070  0.49320  Biso   1.000  H
  H142     1.0000 0.25420  0.02750  0.52190  Biso   1.000  H
  C72      1.0000 0.32230  0.03280  0.58780  Biso   1.000  C
  H143     1.0000 0.34300  0.02190  0.61480  Biso   1.000  H
  H144     1.0000 0.29300  0.04780  0.60180  Biso   1.000  H
  N45      1.0000 0.34980  0.07110  0.55780  Biso   1.000  N
  N46      1.0000 0.38220  0.99670  0.51390  Biso   1.000  N
  N47      1.0000 0.30880  0.03880  0.47830  Biso   1.000  N
  N48      1.0000 0.30770  0.98960  0.55770  Biso   1.000  N
  Co16     1.0000 0.15366  0.34634  0.65366  Biso   1.000  Co
  O304     1.0000 0.31630  0.18370  0.81630  Biso   1.000  O
