data_image0
_cell_length_a       45.887
_cell_length_b       45.887
_cell_length_c       45.887
_cell_angle_alpha    90
_cell_angle_beta     90
_cell_angle_gamma    90

_symmetry_space_group_name_H-M    "P 1"
_symmetry_int_tables_number       1

loop_
  _symmetry_equiv_pos_as_xyz
  'x, y, z'

loop_
  _atom_site_label
  _atom_site_occupancy
  _atom_site_fract_x
  _atom_site_fract_y
  _atom_site_fract_z
  _atom_site_thermal_displace_type
  _atom_site_B_iso_or_equiv
  _atom_site_type_symbol
  Zr1      1.0000 0.50000  0.50000  0.55373  Biso   1.000  Zr
  Zr2      1.0000 0.50000  0.50000  0.44627  Biso   1.000  Zr
  Zr3      1.0000 0.55373  0.50000  0.50000  Biso   1.000  Zr
  Zr4      1.0000 0.44627  0.50000  0.50000  Biso   1.000  Zr
  Zr5      1.0000 0.50000  0.55373  0.50000  Biso   1.000  Zr
  Zr6      1.0000 0.50000  0.44627  0.50000  Biso   1.000  Zr
  O1       1.0000 0.47361  0.47361  0.52639  Biso   1.000  O
  O2       1.0000 0.52639  0.52639  0.52639  Biso   1.000  O
  O3       1.0000 0.52639  0.47361  0.47361  Biso   1.000  O
  O4       1.0000 0.47361  0.52639  0.47361  Biso   1.000  O
  O5       1.0000 0.47361  0.47361  0.47361  Biso   1.000  O
  O6       1.0000 0.52639  0.52639  0.47361  Biso   1.000  O
  O7       1.0000 0.47361  0.52639  0.52639  Biso   1.000  O
  O8       1.0000 0.52639  0.47361  0.52639  Biso   1.000  O
  O9       1.0000 0.54150  0.50000  0.57814  Biso   1.000  O
  C1       1.0000 0.62169  0.50000  0.58104  Biso   1.000  C
  H1       1.0000 0.62680  0.50000  0.56140  Biso   1.000  H
  C2       1.0000 0.64193  0.50000  0.60424  Biso   1.000  C
  H2       1.0000 0.66170  0.50000  0.59960  Biso   1.000  H
  C3       1.0000 0.72471  0.50000  0.68805  Biso   1.000  C
  C4       1.0000 0.67930  0.50000  0.66800  Biso   1.000  C
  O10      1.0000 0.45850  0.50000  0.57814  Biso   1.000  O
  C5       1.0000 0.37831  0.50000  0.58104  Biso   1.000  C
  H3       1.0000 0.37320  0.50000  0.56140  Biso   1.000  H
  C6       1.0000 0.35807  0.50000  0.60424  Biso   1.000  C
  H4       1.0000 0.33830  0.50000  0.59960  Biso   1.000  H
  C7       1.0000 0.27529  0.50000  0.68805  Biso   1.000  C
  C8       1.0000 0.32070  0.50000  0.66800  Biso   1.000  C
  O11      1.0000 0.45850  0.50000  0.42186  Biso   1.000  O
  C9       1.0000 0.37831  0.50000  0.41896  Biso   1.000  C
  H5       1.0000 0.37320  0.50000  0.43860  Biso   1.000  H
  C10      1.0000 0.35807  0.50000  0.39576  Biso   1.000  C
  H6       1.0000 0.33830  0.50000  0.40040  Biso   1.000  H
  C11      1.0000 0.27529  0.50000  0.31195  Biso   1.000  C
  C12      1.0000 0.32070  0.50000  0.33200  Biso   1.000  C
  O12      1.0000 0.54150  0.50000  0.42186  Biso   1.000  O
  C13      1.0000 0.62169  0.50000  0.41896  Biso   1.000  C
  H7       1.0000 0.62680  0.50000  0.43860  Biso   1.000  H
  C14      1.0000 0.64193  0.50000  0.39576  Biso   1.000  C
  H8       1.0000 0.66170  0.50000  0.40040  Biso   1.000  H
  C15      1.0000 0.72471  0.50000  0.31195  Biso   1.000  C
  C16      1.0000 0.67930  0.50000  0.33200  Biso   1.000  C
  O13      1.0000 0.57814  0.54150  0.50000  Biso   1.000  O
  C17      1.0000 0.58104  0.62169  0.50000  Biso   1.000  C
  H9       1.0000 0.56140  0.62680  0.50000  Biso   1.000  H
  C18      1.0000 0.60424  0.64193  0.50000  Biso   1.000  C
  H10      1.0000 0.59960  0.66170  0.50000  Biso   1.000  H
  C19      1.0000 0.68805  0.72471  0.50000  Biso   1.000  C
  C20      1.0000 0.66800  0.67930  0.50000  Biso   1.000  C
  O14      1.0000 0.57814  0.45850  0.50000  Biso   1.000  O
  C21      1.0000 0.58104  0.37831  0.50000  Biso   1.000  C
  H11      1.0000 0.56140  0.37320  0.50000  Biso   1.000  H
  C22      1.0000 0.60424  0.35807  0.50000  Biso   1.000  C
  H12      1.0000 0.59960  0.33830  0.50000  Biso   1.000  H
  C23      1.0000 0.68805  0.27529  0.50000  Biso   1.000  C
  C24      1.0000 0.66800  0.32070  0.50000  Biso   1.000  C
  O15      1.0000 0.42186  0.45850  0.50000  Biso   1.000  O
  C25      1.0000 0.41896  0.37831  0.50000  Biso   1.000  C
  H13      1.0000 0.43860  0.37320  0.50000  Biso   1.000  H
  C26      1.0000 0.39576  0.35807  0.50000  Biso   1.000  C
  H14      1.0000 0.40040  0.33830  0.50000  Biso   1.000  H
  C27      1.0000 0.31195  0.27529  0.50000  Biso   1.000  C
  C28      1.0000 0.33200  0.32070  0.50000  Biso   1.000  C
  O16      1.0000 0.42186  0.54150  0.50000  Biso   1.000  O
  C29      1.0000 0.41896  0.62169  0.50000  Biso   1.000  C
  H15      1.0000 0.43860  0.62680  0.50000  Biso   1.000  H
  C30      1.0000 0.39576  0.64193  0.50000  Biso   1.000  C
  H16      1.0000 0.40040  0.66170  0.50000  Biso   1.000  H
  C31      1.0000 0.31195  0.72471  0.50000  Biso   1.000  C
  C32      1.0000 0.33200  0.67930  0.50000  Biso   1.000  C
  O17      1.0000 0.50000  0.57814  0.54150  Biso   1.000  O
  C33      1.0000 0.50000  0.58104  0.62169  Biso   1.000  C
  H17      1.0000 0.50000  0.56140  0.62680  Biso   1.000  H
  C34      1.0000 0.50000  0.60424  0.64193  Biso   1.000  C
  H18      1.0000 0.50000  0.59960  0.66170  Biso   1.000  H
  C35      1.0000 0.50000  0.68805  0.72471  Biso   1.000  C
  C36      1.0000 0.50000  0.66800  0.67930  Biso   1.000  C
  O18      1.0000 0.50000  0.57814  0.45850  Biso   1.000  O
  C37      1.0000 0.50000  0.58104  0.37831  Biso   1.000  C
  H19      1.0000 0.50000  0.56140  0.37320  Biso   1.000  H
  C38      1.0000 0.50000  0.60424  0.35807  Biso   1.000  C
  H20      1.0000 0.50000  0.59960  0.33830  Biso   1.000  H
  C39      1.0000 0.50000  0.68805  0.27529  Biso   1.000  C
  C40      1.0000 0.50000  0.66800  0.32070  Biso   1.000  C
  O19      1.0000 0.50000  0.42186  0.45850  Biso   1.000  O
  C41      1.0000 0.50000  0.41896  0.37831  Biso   1.000  C
  H21      1.0000 0.50000  0.43860  0.37320  Biso   1.000  H
  C42      1.0000 0.50000  0.39576  0.35807  Biso   1.000  C
  H22      1.0000 0.50000  0.40040  0.33830  Biso   1.000  H
  C43      1.0000 0.50000  0.31195  0.27529  Biso   1.000  C
  C44      1.0000 0.50000  0.33200  0.32070  Biso   1.000  C
  O20      1.0000 0.50000  0.42186  0.54150  Biso   1.000  O
  C45      1.0000 0.50000  0.41896  0.62169  Biso   1.000  C
  H23      1.0000 0.50000  0.43860  0.62680  Biso   1.000  H
  C46      1.0000 0.50000  0.39576  0.64193  Biso   1.000  C
  H24      1.0000 0.50000  0.40040  0.66170  Biso   1.000  H
  C47      1.0000 0.50000  0.31195  0.72471  Biso   1.000  C
  C48      1.0000 0.50000  0.33200  0.67930  Biso   1.000  C
  O21      1.0000 0.50000  0.54150  0.42186  Biso   1.000  O
  C49      1.0000 0.50000  0.62169  0.41896  Biso   1.000  C
  H25      1.0000 0.50000  0.62680  0.43860  Biso   1.000  H
  C50      1.0000 0.50000  0.64193  0.39576  Biso   1.000  C
  H26      1.0000 0.50000  0.66170  0.40040  Biso   1.000  H
  C51      1.0000 0.50000  0.72471  0.31195  Biso   1.000  C
  C52      1.0000 0.50000  0.67930  0.33200  Biso   1.000  C
  O22      1.0000 0.50000  0.45850  0.42186  Biso   1.000  O
  C53      1.0000 0.50000  0.37831  0.41896  Biso   1.000  C
  H27      1.0000 0.50000  0.37320  0.43860  Biso   1.000  H
  C54      1.0000 0.50000  0.35807  0.39576  Biso   1.000  C
  H28      1.0000 0.50000  0.33830  0.40040  Biso   1.000  H
  C55      1.0000 0.50000  0.27529  0.31195  Biso   1.000  C
  C56      1.0000 0.50000  0.32070  0.33200  Biso   1.000  C
  O23      1.0000 0.50000  0.45850  0.57814  Biso   1.000  O
  C57      1.0000 0.50000  0.37831  0.58104  Biso   1.000  C
  H29      1.0000 0.50000  0.37320  0.56140  Biso   1.000  H
  C58      1.0000 0.50000  0.35807  0.60424  Biso   1.000  C
  H30      1.0000 0.50000  0.33830  0.59960  Biso   1.000  H
  C59      1.0000 0.50000  0.27529  0.68805  Biso   1.000  C
  C60      1.0000 0.50000  0.32070  0.66800  Biso   1.000  C
  O24      1.0000 0.50000  0.54150  0.57814  Biso   1.000  O
  C61      1.0000 0.50000  0.62169  0.58104  Biso   1.000  C
  H31      1.0000 0.50000  0.62680  0.56140  Biso   1.000  H
  C62      1.0000 0.50000  0.64193  0.60424  Biso   1.000  C
  H32      1.0000 0.50000  0.66170  0.59960  Biso   1.000  H
  C63      1.0000 0.50000  0.72471  0.68805  Biso   1.000  C
  C64      1.0000 0.50000  0.67930  0.66800  Biso   1.000  C
  O25      1.0000 0.54150  0.57814  0.50000  Biso   1.000  O
  C65      1.0000 0.62169  0.58104  0.50000  Biso   1.000  C
  H33      1.0000 0.62680  0.56140  0.50000  Biso   1.000  H
  C66      1.0000 0.64193  0.60424  0.50000  Biso   1.000  C
  H34      1.0000 0.66170  0.59960  0.50000  Biso   1.000  H
  C67      1.0000 0.72471  0.68805  0.50000  Biso   1.000  C
  C68      1.0000 0.67930  0.66800  0.50000  Biso   1.000  C
  O26      1.0000 0.45850  0.57814  0.50000  Biso   1.000  O
  C69      1.0000 0.37831  0.58104  0.50000  Biso   1.000  C
  H35      1.0000 0.37320  0.56140  0.50000  Biso   1.000  H
  C70      1.0000 0.35807  0.60424  0.50000  Biso   1.000  C
  H36      1.0000 0.33830  0.59960  0.50000  Biso   1.000  H
  C71      1.0000 0.27529  0.68805  0.50000  Biso   1.000  C
  C72      1.0000 0.32070  0.66800  0.50000  Biso   1.000  C
  O27      1.0000 0.45850  0.42186  0.50000  Biso   1.000  O
  C73      1.0000 0.37831  0.41896  0.50000  Biso   1.000  C
  H37      1.0000 0.37320  0.43860  0.50000  Biso   1.000  H
  C74      1.0000 0.35807  0.39576  0.50000  Biso   1.000  C
  H38      1.0000 0.33830  0.40040  0.50000  Biso   1.000  H
  C75      1.0000 0.27529  0.31195  0.50000  Biso   1.000  C
  C76      1.0000 0.32070  0.33200  0.50000  Biso   1.000  C
  O28      1.0000 0.54150  0.42186  0.50000  Biso   1.000  O
  C77      1.0000 0.62169  0.41896  0.50000  Biso   1.000  C
  H39      1.0000 0.62680  0.43860  0.50000  Biso   1.000  H
  C78      1.0000 0.64193  0.39576  0.50000  Biso   1.000  C
  H40      1.0000 0.66170  0.40040  0.50000  Biso   1.000  H
  C79      1.0000 0.72471  0.31195  0.50000  Biso   1.000  C
  C80      1.0000 0.67930  0.33200  0.50000  Biso   1.000  C
  O29      1.0000 0.57814  0.50000  0.45850  Biso   1.000  O
  C81      1.0000 0.58104  0.50000  0.37831  Biso   1.000  C
  H41      1.0000 0.56140  0.50000  0.37320  Biso   1.000  H
  C82      1.0000 0.60424  0.50000  0.35807  Biso   1.000  C
  H42      1.0000 0.59960  0.50000  0.33830  Biso   1.000  H
  C83      1.0000 0.68805  0.50000  0.27529  Biso   1.000  C
  C84      1.0000 0.66800  0.50000  0.32070  Biso   1.000  C
  O30      1.0000 0.57814  0.50000  0.54150  Biso   1.000  O
  C85      1.0000 0.58104  0.50000  0.62169  Biso   1.000  C
  H43      1.0000 0.56140  0.50000  0.62680  Biso   1.000  H
  C86      1.0000 0.60424  0.50000  0.64193  Biso   1.000  C
  H44      1.0000 0.59960  0.50000  0.66170  Biso   1.000  H
  C87      1.0000 0.68805  0.50000  0.72471  Biso   1.000  C
  C88      1.0000 0.66800  0.50000  0.67930  Biso   1.000  C
  O31      1.0000 0.42186  0.50000  0.54150  Biso   1.000  O
  C89      1.0000 0.41896  0.50000  0.62169  Biso   1.000  C
  H45      1.0000 0.43860  0.50000  0.62680  Biso   1.000  H
  C90      1.0000 0.39576  0.50000  0.64193  Biso   1.000  C
  H46      1.0000 0.40040  0.50000  0.66170  Biso   1.000  H
  C91      1.0000 0.31195  0.50000  0.72471  Biso   1.000  C
  C92      1.0000 0.33200  0.50000  0.67930  Biso   1.000  C
  O32      1.0000 0.42186  0.50000  0.45850  Biso   1.000  O
  C93      1.0000 0.41896  0.50000  0.37831  Biso   1.000  C
  H47      1.0000 0.43860  0.50000  0.37320  Biso   1.000  H
  C94      1.0000 0.39576  0.50000  0.35807  Biso   1.000  C
  H48      1.0000 0.40040  0.50000  0.33830  Biso   1.000  H
  C95      1.0000 0.31195  0.50000  0.27529  Biso   1.000  C
  C96      1.0000 0.33200  0.50000  0.32070  Biso   1.000  C
  C97      1.0000 0.56846  0.50000  0.56846  Biso   1.000  C
  C98      1.0000 0.59171  0.50000  0.59171  Biso   1.000  C
  C99      1.0000 0.65591  0.50000  0.65591  Biso   1.000  C
  C100     1.0000 0.63414  0.50000  0.63414  Biso   1.000  C
  C101     1.0000 0.69544  0.50000  0.69544  Biso   1.000  C
  C102     1.0000 0.43154  0.50000  0.56846  Biso   1.000  C
  C103     1.0000 0.40829  0.50000  0.59171  Biso   1.000  C
  C104     1.0000 0.34409  0.50000  0.65591  Biso   1.000  C
  C105     1.0000 0.36586  0.50000  0.63414  Biso   1.000  C
  C106     1.0000 0.30456  0.50000  0.69544  Biso   1.000  C
  C107     1.0000 0.43154  0.50000  0.43154  Biso   1.000  C
  C108     1.0000 0.40829  0.50000  0.40829  Biso   1.000  C
  C109     1.0000 0.34409  0.50000  0.34409  Biso   1.000  C
  C110     1.0000 0.36586  0.50000  0.36586  Biso   1.000  C
  C111     1.0000 0.30456  0.50000  0.30456  Biso   1.000  C
  C112     1.0000 0.56846  0.50000  0.43154  Biso   1.000  C
  C113     1.0000 0.59171  0.50000  0.40829  Biso   1.000  C
  C114     1.0000 0.65591  0.50000  0.34409  Biso   1.000  C
  C115     1.0000 0.63414  0.50000  0.36586  Biso   1.000  C
  C116     1.0000 0.69544  0.50000  0.30456  Biso   1.000  C
  C117     1.0000 0.56846  0.56846  0.50000  Biso   1.000  C
  C118     1.0000 0.59171  0.59171  0.50000  Biso   1.000  C
  C119     1.0000 0.65591  0.65591  0.50000  Biso   1.000  C
  C120     1.0000 0.63414  0.63414  0.50000  Biso   1.000  C
  C121     1.0000 0.69544  0.69544  0.50000  Biso   1.000  C
  C122     1.0000 0.56846  0.43154  0.50000  Biso   1.000  C
  C123     1.0000 0.59171  0.40829  0.50000  Biso   1.000  C
  C124     1.0000 0.65591  0.34409  0.50000  Biso   1.000  C
  C125     1.0000 0.63414  0.36586  0.50000  Biso   1.000  C
  C126     1.0000 0.69544  0.30456  0.50000  Biso   1.000  C
  C127     1.0000 0.43154  0.43154  0.50000  Biso   1.000  C
  C128     1.0000 0.40829  0.40829  0.50000  Biso   1.000  C
  C129     1.0000 0.34409  0.34409  0.50000  Biso   1.000  C
  C130     1.0000 0.36586  0.36586  0.50000  Biso   1.000  C
  C131     1.0000 0.30456  0.30456  0.50000  Biso   1.000  C
  C132     1.0000 0.43154  0.56846  0.50000  Biso   1.000  C
  C133     1.0000 0.40829  0.59171  0.50000  Biso   1.000  C
  C134     1.0000 0.34409  0.65591  0.50000  Biso   1.000  C
  C135     1.0000 0.36586  0.63414  0.50000  Biso   1.000  C
  C136     1.0000 0.30456  0.69544  0.50000  Biso   1.000  C
  C137     1.0000 0.50000  0.56846  0.56846  Biso   1.000  C
  C138     1.0000 0.50000  0.59171  0.59171  Biso   1.000  C
  C139     1.0000 0.50000  0.65591  0.65591  Biso   1.000  C
  C140     1.0000 0.50000  0.63414  0.63414  Biso   1.000  C
  C141     1.0000 0.50000  0.69544  0.69544  Biso   1.000  C
  C142     1.0000 0.50000  0.56846  0.43154  Biso   1.000  C
  C143     1.0000 0.50000  0.59171  0.40829  Biso   1.000  C
  C144     1.0000 0.50000  0.65591  0.34409  Biso   1.000  C
  C145     1.0000 0.50000  0.63414  0.36586  Biso   1.000  C
  C146     1.0000 0.50000  0.69544  0.30456  Biso   1.000  C
  C147     1.0000 0.50000  0.43154  0.43154  Biso   1.000  C
  C148     1.0000 0.50000  0.40829  0.40829  Biso   1.000  C
  C149     1.0000 0.50000  0.34409  0.34409  Biso   1.000  C
  C150     1.0000 0.50000  0.36586  0.36586  Biso   1.000  C
  C151     1.0000 0.50000  0.30456  0.30456  Biso   1.000  C
  C152     1.0000 0.50000  0.43154  0.56846  Biso   1.000  C
  C153     1.0000 0.50000  0.40829  0.59171  Biso   1.000  C
  C154     1.0000 0.50000  0.34409  0.65591  Biso   1.000  C
  C155     1.0000 0.50000  0.36586  0.63414  Biso   1.000  C
  C156     1.0000 0.50000  0.30456  0.69544  Biso   1.000  C
  Zr7      1.0000 0.50000  0.00000  0.05373  Biso   1.000  Zr
  Zr8      1.0000 0.50000  0.00000  0.94627  Biso   1.000  Zr
  Zr9      1.0000 0.55373  0.00000  0.00000  Biso   1.000  Zr
  Zr10     1.0000 0.44627  0.00000  0.00000  Biso   1.000  Zr
  Zr11     1.0000 0.50000  0.05373  0.00000  Biso   1.000  Zr
  Zr12     1.0000 0.50000  0.94627  0.00000  Biso   1.000  Zr
  O33      1.0000 0.47361  0.97361  0.02639  Biso   1.000  O
  O34      1.0000 0.52639  0.02639  0.02639  Biso   1.000  O
  O35      1.0000 0.52639  0.97361  0.97361  Biso   1.000  O
  O36      1.0000 0.47361  0.02639  0.97361  Biso   1.000  O
  O37      1.0000 0.47361  0.97361  0.97361  Biso   1.000  O
  O38      1.0000 0.52639  0.02639  0.97361  Biso   1.000  O
  O39      1.0000 0.47361  0.02639  0.02639  Biso   1.000  O
  O40      1.0000 0.52639  0.97361  0.02639  Biso   1.000  O
  O41      1.0000 0.54150  0.00000  0.07814  Biso   1.000  O
  C157     1.0000 0.62169  0.00000  0.08104  Biso   1.000  C
  H49      1.0000 0.62680  0.00000  0.06140  Biso   1.000  H
  C158     1.0000 0.64193  0.00000  0.10424  Biso   1.000  C
  H50      1.0000 0.66170  0.00000  0.09960  Biso   1.000  H
  C159     1.0000 0.72471  0.00000  0.18805  Biso   1.000  C
  C160     1.0000 0.67930  0.00000  0.16800  Biso   1.000  C
  O42      1.0000 0.45850  0.00000  0.07814  Biso   1.000  O
  C161     1.0000 0.37831  0.00000  0.08104  Biso   1.000  C
  H51      1.0000 0.37320  0.00000  0.06140  Biso   1.000  H
  C162     1.0000 0.35807  0.00000  0.10424  Biso   1.000  C
  H52      1.0000 0.33830  0.00000  0.09960  Biso   1.000  H
  C163     1.0000 0.27529  0.00000  0.18805  Biso   1.000  C
  C164     1.0000 0.32070  0.00000  0.16800  Biso   1.000  C
  O43      1.0000 0.45850  0.00000  0.92186  Biso   1.000  O
  C165     1.0000 0.37831  0.00000  0.91896  Biso   1.000  C
  H53      1.0000 0.37320  0.00000  0.93860  Biso   1.000  H
  C166     1.0000 0.35807  0.00000  0.89576  Biso   1.000  C
  H54      1.0000 0.33830  0.00000  0.90040  Biso   1.000  H
  C167     1.0000 0.27529  0.00000  0.81195  Biso   1.000  C
  C168     1.0000 0.32070  0.00000  0.83200  Biso   1.000  C
  O44      1.0000 0.54150  0.00000  0.92186  Biso   1.000  O
  C169     1.0000 0.62169  0.00000  0.91896  Biso   1.000  C
  H55      1.0000 0.62680  0.00000  0.93860  Biso   1.000  H
  C170     1.0000 0.64193  0.00000  0.89576  Biso   1.000  C
  H56      1.0000 0.66170  0.00000  0.90040  Biso   1.000  H
  C171     1.0000 0.72471  0.00000  0.81195  Biso   1.000  C
  C172     1.0000 0.67930  0.00000  0.83200  Biso   1.000  C
  O45      1.0000 0.57814  0.04150  0.00000  Biso   1.000  O
  C173     1.0000 0.58104  0.12169  0.00000  Biso   1.000  C
  H57      1.0000 0.56140  0.12680  0.00000  Biso   1.000  H
  C174     1.0000 0.60424  0.14193  0.00000  Biso   1.000  C
  H58      1.0000 0.59960  0.16170  0.00000  Biso   1.000  H
  C175     1.0000 0.68805  0.22471  0.00000  Biso   1.000  C
  C176     1.0000 0.66800  0.17930  0.00000  Biso   1.000  C
  O46      1.0000 0.57814  0.95850  0.00000  Biso   1.000  O
  C177     1.0000 0.58104  0.87831  0.00000  Biso   1.000  C
  H59      1.0000 0.56140  0.87320  0.00000  Biso   1.000  H
  C178     1.0000 0.60424  0.85807  0.00000  Biso   1.000  C
  H60      1.0000 0.59960  0.83830  0.00000  Biso   1.000  H
  C179     1.0000 0.68805  0.77529  0.00000  Biso   1.000  C
  C180     1.0000 0.66800  0.82070  0.00000  Biso   1.000  C
  O47      1.0000 0.42186  0.95850  0.00000  Biso   1.000  O
  C181     1.0000 0.41896  0.87831  0.00000  Biso   1.000  C
  H61      1.0000 0.43860  0.87320  0.00000  Biso   1.000  H
  C182     1.0000 0.39576  0.85807  0.00000  Biso   1.000  C
  H62      1.0000 0.40040  0.83830  0.00000  Biso   1.000  H
  C183     1.0000 0.31195  0.77529  0.00000  Biso   1.000  C
  C184     1.0000 0.33200  0.82070  0.00000  Biso   1.000  C
  O48      1.0000 0.42186  0.04150  0.00000  Biso   1.000  O
  C185     1.0000 0.41896  0.12169  0.00000  Biso   1.000  C
  H63      1.0000 0.43860  0.12680  0.00000  Biso   1.000  H
  C186     1.0000 0.39576  0.14193  0.00000  Biso   1.000  C
  H64      1.0000 0.40040  0.16170  0.00000  Biso   1.000  H
  C187     1.0000 0.31195  0.22471  0.00000  Biso   1.000  C
  C188     1.0000 0.33200  0.17930  0.00000  Biso   1.000  C
  O49      1.0000 0.50000  0.07814  0.04150  Biso   1.000  O
  C189     1.0000 0.50000  0.08104  0.12169  Biso   1.000  C
  H65      1.0000 0.50000  0.06140  0.12680  Biso   1.000  H
  C190     1.0000 0.50000  0.10424  0.14193  Biso   1.000  C
  H66      1.0000 0.50000  0.09960  0.16170  Biso   1.000  H
  C191     1.0000 0.50000  0.18805  0.22471  Biso   1.000  C
  C192     1.0000 0.50000  0.16800  0.17930  Biso   1.000  C
  O50      1.0000 0.50000  0.07814  0.95850  Biso   1.000  O
  C193     1.0000 0.50000  0.08104  0.87831  Biso   1.000  C
  H67      1.0000 0.50000  0.06140  0.87320  Biso   1.000  H
  C194     1.0000 0.50000  0.10424  0.85807  Biso   1.000  C
  H68      1.0000 0.50000  0.09960  0.83830  Biso   1.000  H
  C195     1.0000 0.50000  0.18805  0.77529  Biso   1.000  C
  C196     1.0000 0.50000  0.16800  0.82070  Biso   1.000  C
  O51      1.0000 0.50000  0.92186  0.95850  Biso   1.000  O
  C197     1.0000 0.50000  0.91896  0.87831  Biso   1.000  C
  H69      1.0000 0.50000  0.93860  0.87320  Biso   1.000  H
  C198     1.0000 0.50000  0.89576  0.85807  Biso   1.000  C
  H70      1.0000 0.50000  0.90040  0.83830  Biso   1.000  H
  C199     1.0000 0.50000  0.81195  0.77529  Biso   1.000  C
  C200     1.0000 0.50000  0.83200  0.82070  Biso   1.000  C
  O52      1.0000 0.50000  0.92186  0.04150  Biso   1.000  O
  C201     1.0000 0.50000  0.91896  0.12169  Biso   1.000  C
  H71      1.0000 0.50000  0.93860  0.12680  Biso   1.000  H
  C202     1.0000 0.50000  0.89576  0.14193  Biso   1.000  C
  H72      1.0000 0.50000  0.90040  0.16170  Biso   1.000  H
  C203     1.0000 0.50000  0.81195  0.22471  Biso   1.000  C
  C204     1.0000 0.50000  0.83200  0.17930  Biso   1.000  C
  O53      1.0000 0.50000  0.04150  0.92186  Biso   1.000  O
  C205     1.0000 0.50000  0.12169  0.91896  Biso   1.000  C
  H73      1.0000 0.50000  0.12680  0.93860  Biso   1.000  H
  C206     1.0000 0.50000  0.14193  0.89576  Biso   1.000  C
  H74      1.0000 0.50000  0.16170  0.90040  Biso   1.000  H
  C207     1.0000 0.50000  0.22471  0.81195  Biso   1.000  C
  C208     1.0000 0.50000  0.17930  0.83200  Biso   1.000  C
  O54      1.0000 0.50000  0.95850  0.92186  Biso   1.000  O
  C209     1.0000 0.50000  0.87831  0.91896  Biso   1.000  C
  H75      1.0000 0.50000  0.87320  0.93860  Biso   1.000  H
  C210     1.0000 0.50000  0.85807  0.89576  Biso   1.000  C
  H76      1.0000 0.50000  0.83830  0.90040  Biso   1.000  H
  C211     1.0000 0.50000  0.77529  0.81195  Biso   1.000  C
  C212     1.0000 0.50000  0.82070  0.83200  Biso   1.000  C
  O55      1.0000 0.50000  0.95850  0.07814  Biso   1.000  O
  C213     1.0000 0.50000  0.87831  0.08104  Biso   1.000  C
  H77      1.0000 0.50000  0.87320  0.06140  Biso   1.000  H
  C214     1.0000 0.50000  0.85807  0.10424  Biso   1.000  C
  H78      1.0000 0.50000  0.83830  0.09960  Biso   1.000  H
  C215     1.0000 0.50000  0.77529  0.18805  Biso   1.000  C
  C216     1.0000 0.50000  0.82070  0.16800  Biso   1.000  C
  O56      1.0000 0.50000  0.04150  0.07814  Biso   1.000  O
  C217     1.0000 0.50000  0.12169  0.08104  Biso   1.000  C
  H79      1.0000 0.50000  0.12680  0.06140  Biso   1.000  H
  C218     1.0000 0.50000  0.14193  0.10424  Biso   1.000  C
  H80      1.0000 0.50000  0.16170  0.09960  Biso   1.000  H
  C219     1.0000 0.50000  0.22471  0.18805  Biso   1.000  C
  C220     1.0000 0.50000  0.17930  0.16800  Biso   1.000  C
  O57      1.0000 0.54150  0.07814  0.00000  Biso   1.000  O
  C221     1.0000 0.62169  0.08104  0.00000  Biso   1.000  C
  H81      1.0000 0.62680  0.06140  0.00000  Biso   1.000  H
  C222     1.0000 0.64193  0.10424  0.00000  Biso   1.000  C
  H82      1.0000 0.66170  0.09960  0.00000  Biso   1.000  H
  C223     1.0000 0.72471  0.18805  0.00000  Biso   1.000  C
  C224     1.0000 0.67930  0.16800  0.00000  Biso   1.000  C
  O58      1.0000 0.45850  0.07814  0.00000  Biso   1.000  O
  C225     1.0000 0.37831  0.08104  0.00000  Biso   1.000  C
  H83      1.0000 0.37320  0.06140  0.00000  Biso   1.000  H
  C226     1.0000 0.35807  0.10424  0.00000  Biso   1.000  C
  H84      1.0000 0.33830  0.09960  0.00000  Biso   1.000  H
  C227     1.0000 0.27529  0.18805  0.00000  Biso   1.000  C
  C228     1.0000 0.32070  0.16800  0.00000  Biso   1.000  C
  O59      1.0000 0.45850  0.92186  0.00000  Biso   1.000  O
  C229     1.0000 0.37831  0.91896  0.00000  Biso   1.000  C
  H85      1.0000 0.37320  0.93860  0.00000  Biso   1.000  H
  C230     1.0000 0.35807  0.89576  0.00000  Biso   1.000  C
  H86      1.0000 0.33830  0.90040  0.00000  Biso   1.000  H
  C231     1.0000 0.27529  0.81195  0.00000  Biso   1.000  C
  C232     1.0000 0.32070  0.83200  0.00000  Biso   1.000  C
  O60      1.0000 0.54150  0.92186  0.00000  Biso   1.000  O
  C233     1.0000 0.62169  0.91896  0.00000  Biso   1.000  C
  H87      1.0000 0.62680  0.93860  0.00000  Biso   1.000  H
  C234     1.0000 0.64193  0.89576  0.00000  Biso   1.000  C
  H88      1.0000 0.66170  0.90040  0.00000  Biso   1.000  H
  C235     1.0000 0.72471  0.81195  0.00000  Biso   1.000  C
  C236     1.0000 0.67930  0.83200  0.00000  Biso   1.000  C
  O61      1.0000 0.57814  0.00000  0.95850  Biso   1.000  O
  C237     1.0000 0.58104  0.00000  0.87831  Biso   1.000  C
  H89      1.0000 0.56140  0.00000  0.87320  Biso   1.000  H
  C238     1.0000 0.60424  0.00000  0.85807  Biso   1.000  C
  H90      1.0000 0.59960  0.00000  0.83830  Biso   1.000  H
  C239     1.0000 0.68805  0.00000  0.77529  Biso   1.000  C
  C240     1.0000 0.66800  0.00000  0.82070  Biso   1.000  C
  O62      1.0000 0.57814  0.00000  0.04150  Biso   1.000  O
  C241     1.0000 0.58104  0.00000  0.12169  Biso   1.000  C
  H91      1.0000 0.56140  0.00000  0.12680  Biso   1.000  H
  C242     1.0000 0.60424  0.00000  0.14193  Biso   1.000  C
  H92      1.0000 0.59960  0.00000  0.16170  Biso   1.000  H
  C243     1.0000 0.68805  0.00000  0.22471  Biso   1.000  C
  C244     1.0000 0.66800  0.00000  0.17930  Biso   1.000  C
  O63      1.0000 0.42186  0.00000  0.04150  Biso   1.000  O
  C245     1.0000 0.41896  0.00000  0.12169  Biso   1.000  C
  H93      1.0000 0.43860  0.00000  0.12680  Biso   1.000  H
  C246     1.0000 0.39576  0.00000  0.14193  Biso   1.000  C
  H94      1.0000 0.40040  0.00000  0.16170  Biso   1.000  H
  C247     1.0000 0.31195  0.00000  0.22471  Biso   1.000  C
  C248     1.0000 0.33200  0.00000  0.17930  Biso   1.000  C
  O64      1.0000 0.42186  0.00000  0.95850  Biso   1.000  O
  C249     1.0000 0.41896  0.00000  0.87831  Biso   1.000  C
  H95      1.0000 0.43860  0.00000  0.87320  Biso   1.000  H
  C250     1.0000 0.39576  0.00000  0.85807  Biso   1.000  C
  H96      1.0000 0.40040  0.00000  0.83830  Biso   1.000  H
  C251     1.0000 0.31195  0.00000  0.77529  Biso   1.000  C
  C252     1.0000 0.33200  0.00000  0.82070  Biso   1.000  C
  C253     1.0000 0.56846  0.00000  0.06846  Biso   1.000  C
  C254     1.0000 0.59171  0.00000  0.09171  Biso   1.000  C
  C255     1.0000 0.65591  0.00000  0.15591  Biso   1.000  C
  C256     1.0000 0.63414  0.00000  0.13414  Biso   1.000  C
  C257     1.0000 0.69544  0.00000  0.19544  Biso   1.000  C
  C258     1.0000 0.43154  0.00000  0.06846  Biso   1.000  C
  C259     1.0000 0.40829  0.00000  0.09171  Biso   1.000  C
  C260     1.0000 0.34409  0.00000  0.15591  Biso   1.000  C
  C261     1.0000 0.36586  0.00000  0.13414  Biso   1.000  C
  C262     1.0000 0.30456  0.00000  0.19544  Biso   1.000  C
  C263     1.0000 0.43154  0.00000  0.93154  Biso   1.000  C
  C264     1.0000 0.40829  0.00000  0.90829  Biso   1.000  C
  C265     1.0000 0.34409  0.00000  0.84409  Biso   1.000  C
  C266     1.0000 0.36586  0.00000  0.86586  Biso   1.000  C
  C267     1.0000 0.30456  0.00000  0.80456  Biso   1.000  C
  C268     1.0000 0.56846  0.00000  0.93154  Biso   1.000  C
  C269     1.0000 0.59171  0.00000  0.90829  Biso   1.000  C
  C270     1.0000 0.65591  0.00000  0.84409  Biso   1.000  C
  C271     1.0000 0.63414  0.00000  0.86586  Biso   1.000  C
  C272     1.0000 0.69544  0.00000  0.80456  Biso   1.000  C
  C273     1.0000 0.56846  0.06846  0.00000  Biso   1.000  C
  C274     1.0000 0.59171  0.09171  0.00000  Biso   1.000  C
  C275     1.0000 0.65591  0.15591  0.00000  Biso   1.000  C
  C276     1.0000 0.63414  0.13414  0.00000  Biso   1.000  C
  C277     1.0000 0.69544  0.19544  0.00000  Biso   1.000  C
  C278     1.0000 0.56846  0.93154  0.00000  Biso   1.000  C
  C279     1.0000 0.59171  0.90829  0.00000  Biso   1.000  C
  C280     1.0000 0.65591  0.84409  0.00000  Biso   1.000  C
  C281     1.0000 0.63414  0.86586  0.00000  Biso   1.000  C
  C282     1.0000 0.69544  0.80456  0.00000  Biso   1.000  C
  C283     1.0000 0.43154  0.93154  0.00000  Biso   1.000  C
  C284     1.0000 0.40829  0.90829  0.00000  Biso   1.000  C
  C285     1.0000 0.34409  0.84409  0.00000  Biso   1.000  C
  C286     1.0000 0.36586  0.86586  0.00000  Biso   1.000  C
  C287     1.0000 0.30456  0.80456  0.00000  Biso   1.000  C
  C288     1.0000 0.43154  0.06846  0.00000  Biso   1.000  C
  C289     1.0000 0.40829  0.09171  0.00000  Biso   1.000  C
  C290     1.0000 0.34409  0.15591  0.00000  Biso   1.000  C
  C291     1.0000 0.36586  0.13414  0.00000  Biso   1.000  C
  C292     1.0000 0.30456  0.19544  0.00000  Biso   1.000  C
  C293     1.0000 0.50000  0.06846  0.06846  Biso   1.000  C
  C294     1.0000 0.50000  0.09171  0.09171  Biso   1.000  C
  C295     1.0000 0.50000  0.15591  0.15591  Biso   1.000  C
  C296     1.0000 0.50000  0.13414  0.13414  Biso   1.000  C
  C297     1.0000 0.50000  0.19544  0.19544  Biso   1.000  C
  C298     1.0000 0.50000  0.06846  0.93154  Biso   1.000  C
  C299     1.0000 0.50000  0.09171  0.90829  Biso   1.000  C
  C300     1.0000 0.50000  0.15591  0.84409  Biso   1.000  C
  C301     1.0000 0.50000  0.13414  0.86586  Biso   1.000  C
  C302     1.0000 0.50000  0.19544  0.80456  Biso   1.000  C
  C303     1.0000 0.50000  0.93154  0.93154  Biso   1.000  C
  C304     1.0000 0.50000  0.90829  0.90829  Biso   1.000  C
  C305     1.0000 0.50000  0.84409  0.84409  Biso   1.000  C
  C306     1.0000 0.50000  0.86586  0.86586  Biso   1.000  C
  C307     1.0000 0.50000  0.80456  0.80456  Biso   1.000  C
  C308     1.0000 0.50000  0.93154  0.06846  Biso   1.000  C
  C309     1.0000 0.50000  0.90829  0.09171  Biso   1.000  C
  C310     1.0000 0.50000  0.84409  0.15591  Biso   1.000  C
  C311     1.0000 0.50000  0.86586  0.13414  Biso   1.000  C
  C312     1.0000 0.50000  0.80456  0.19544  Biso   1.000  C
  Zr13     1.0000 0.00000  0.50000  0.05373  Biso   1.000  Zr
  Zr14     1.0000 0.00000  0.50000  0.94627  Biso   1.000  Zr
  Zr15     1.0000 0.05373  0.50000  0.00000  Biso   1.000  Zr
  Zr16     1.0000 0.94627  0.50000  0.00000  Biso   1.000  Zr
  Zr17     1.0000 0.00000  0.55373  0.00000  Biso   1.000  Zr
  Zr18     1.0000 0.00000  0.44627  0.00000  Biso   1.000  Zr
  O65      1.0000 0.97361  0.47361  0.02639  Biso   1.000  O
  O66      1.0000 0.02639  0.52639  0.02639  Biso   1.000  O
  O67      1.0000 0.02639  0.47361  0.97361  Biso   1.000  O
  O68      1.0000 0.97361  0.52639  0.97361  Biso   1.000  O
  O69      1.0000 0.97361  0.47361  0.97361  Biso   1.000  O
  O70      1.0000 0.02639  0.52639  0.97361  Biso   1.000  O
  O71      1.0000 0.97361  0.52639  0.02639  Biso   1.000  O
  O72      1.0000 0.02639  0.47361  0.02639  Biso   1.000  O
  O73      1.0000 0.04150  0.50000  0.07814  Biso   1.000  O
  C313     1.0000 0.12169  0.50000  0.08104  Biso   1.000  C
  H97      1.0000 0.12680  0.50000  0.06140  Biso   1.000  H
  C314     1.0000 0.14193  0.50000  0.10424  Biso   1.000  C
  H98      1.0000 0.16170  0.50000  0.09960  Biso   1.000  H
  C315     1.0000 0.22471  0.50000  0.18805  Biso   1.000  C
  C316     1.0000 0.17930  0.50000  0.16800  Biso   1.000  C
  O74      1.0000 0.95850  0.50000  0.07814  Biso   1.000  O
  C317     1.0000 0.87831  0.50000  0.08104  Biso   1.000  C
  H99      1.0000 0.87320  0.50000  0.06140  Biso   1.000  H
  C318     1.0000 0.85807  0.50000  0.10424  Biso   1.000  C
  H100     1.0000 0.83830  0.50000  0.09960  Biso   1.000  H
  C319     1.0000 0.77529  0.50000  0.18805  Biso   1.000  C
  C320     1.0000 0.82070  0.50000  0.16800  Biso   1.000  C
  O75      1.0000 0.95850  0.50000  0.92186  Biso   1.000  O
  C321     1.0000 0.87831  0.50000  0.91896  Biso   1.000  C
  H101     1.0000 0.87320  0.50000  0.93860  Biso   1.000  H
  C322     1.0000 0.85807  0.50000  0.89576  Biso   1.000  C
  H102     1.0000 0.83830  0.50000  0.90040  Biso   1.000  H
  C323     1.0000 0.77529  0.50000  0.81195  Biso   1.000  C
  C324     1.0000 0.82070  0.50000  0.83200  Biso   1.000  C
  O76      1.0000 0.04150  0.50000  0.92186  Biso   1.000  O
  C325     1.0000 0.12169  0.50000  0.91896  Biso   1.000  C
  H103     1.0000 0.12680  0.50000  0.93860  Biso   1.000  H
  C326     1.0000 0.14193  0.50000  0.89576  Biso   1.000  C
  H104     1.0000 0.16170  0.50000  0.90040  Biso   1.000  H
  C327     1.0000 0.22471  0.50000  0.81195  Biso   1.000  C
  C328     1.0000 0.17930  0.50000  0.83200  Biso   1.000  C
  O77      1.0000 0.07814  0.54150  0.00000  Biso   1.000  O
  C329     1.0000 0.08104  0.62169  0.00000  Biso   1.000  C
  H105     1.0000 0.06140  0.62680  0.00000  Biso   1.000  H
  C330     1.0000 0.10424  0.64193  0.00000  Biso   1.000  C
  H106     1.0000 0.09960  0.66170  0.00000  Biso   1.000  H
  C331     1.0000 0.18805  0.72471  0.00000  Biso   1.000  C
  C332     1.0000 0.16800  0.67930  0.00000  Biso   1.000  C
  O78      1.0000 0.07814  0.45850  0.00000  Biso   1.000  O
  C333     1.0000 0.08104  0.37831  0.00000  Biso   1.000  C
  H107     1.0000 0.06140  0.37320  0.00000  Biso   1.000  H
  C334     1.0000 0.10424  0.35807  0.00000  Biso   1.000  C
  H108     1.0000 0.09960  0.33830  0.00000  Biso   1.000  H
  C335     1.0000 0.18805  0.27529  0.00000  Biso   1.000  C
  C336     1.0000 0.16800  0.32070  0.00000  Biso   1.000  C
  O79      1.0000 0.92186  0.45850  0.00000  Biso   1.000  O
  C337     1.0000 0.91896  0.37831  0.00000  Biso   1.000  C
  H109     1.0000 0.93860  0.37320  0.00000  Biso   1.000  H
  C338     1.0000 0.89576  0.35807  0.00000  Biso   1.000  C
  H110     1.0000 0.90040  0.33830  0.00000  Biso   1.000  H
  C339     1.0000 0.81195  0.27529  0.00000  Biso   1.000  C
  C340     1.0000 0.83200  0.32070  0.00000  Biso   1.000  C
  O80      1.0000 0.92186  0.54150  0.00000  Biso   1.000  O
  C341     1.0000 0.91896  0.62169  0.00000  Biso   1.000  C
  H111     1.0000 0.93860  0.62680  0.00000  Biso   1.000  H
  C342     1.0000 0.89576  0.64193  0.00000  Biso   1.000  C
  H112     1.0000 0.90040  0.66170  0.00000  Biso   1.000  H
  C343     1.0000 0.81195  0.72471  0.00000  Biso   1.000  C
  C344     1.0000 0.83200  0.67930  0.00000  Biso   1.000  C
  O81      1.0000 0.00000  0.57814  0.04150  Biso   1.000  O
  C345     1.0000 0.00000  0.58104  0.12169  Biso   1.000  C
  H113     1.0000 0.00000  0.56140  0.12680  Biso   1.000  H
  C346     1.0000 0.00000  0.60424  0.14193  Biso   1.000  C
  H114     1.0000 0.00000  0.59960  0.16170  Biso   1.000  H
  C347     1.0000 0.00000  0.68805  0.22471  Biso   1.000  C
  C348     1.0000 0.00000  0.66800  0.17930  Biso   1.000  C
  O82      1.0000 0.00000  0.57814  0.95850  Biso   1.000  O
  C349     1.0000 0.00000  0.58104  0.87831  Biso   1.000  C
  H115     1.0000 0.00000  0.56140  0.87320  Biso   1.000  H
  C350     1.0000 0.00000  0.60424  0.85807  Biso   1.000  C
  H116     1.0000 0.00000  0.59960  0.83830  Biso   1.000  H
  C351     1.0000 0.00000  0.68805  0.77529  Biso   1.000  C
  C352     1.0000 0.00000  0.66800  0.82070  Biso   1.000  C
  O83      1.0000 0.00000  0.42186  0.95850  Biso   1.000  O
  C353     1.0000 0.00000  0.41896  0.87831  Biso   1.000  C
  H117     1.0000 0.00000  0.43860  0.87320  Biso   1.000  H
  C354     1.0000 0.00000  0.39576  0.85807  Biso   1.000  C
  H118     1.0000 0.00000  0.40040  0.83830  Biso   1.000  H
  C355     1.0000 0.00000  0.31195  0.77529  Biso   1.000  C
  C356     1.0000 0.00000  0.33200  0.82070  Biso   1.000  C
  O84      1.0000 0.00000  0.42186  0.04150  Biso   1.000  O
  C357     1.0000 0.00000  0.41896  0.12169  Biso   1.000  C
  H119     1.0000 0.00000  0.43860  0.12680  Biso   1.000  H
  C358     1.0000 0.00000  0.39576  0.14193  Biso   1.000  C
  H120     1.0000 0.00000  0.40040  0.16170  Biso   1.000  H
  C359     1.0000 0.00000  0.31195  0.22471  Biso   1.000  C
  C360     1.0000 0.00000  0.33200  0.17930  Biso   1.000  C
  O85      1.0000 0.00000  0.54150  0.92186  Biso   1.000  O
  C361     1.0000 0.00000  0.62169  0.91896  Biso   1.000  C
  H121     1.0000 0.00000  0.62680  0.93860  Biso   1.000  H
  C362     1.0000 0.00000  0.64193  0.89576  Biso   1.000  C
  H122     1.0000 0.00000  0.66170  0.90040  Biso   1.000  H
  C363     1.0000 0.00000  0.72471  0.81195  Biso   1.000  C
  C364     1.0000 0.00000  0.67930  0.83200  Biso   1.000  C
  O86      1.0000 0.00000  0.45850  0.92186  Biso   1.000  O
  C365     1.0000 0.00000  0.37831  0.91896  Biso   1.000  C
  H123     1.0000 0.00000  0.37320  0.93860  Biso   1.000  H
  C366     1.0000 0.00000  0.35807  0.89576  Biso   1.000  C
  H124     1.0000 0.00000  0.33830  0.90040  Biso   1.000  H
  C367     1.0000 0.00000  0.27529  0.81195  Biso   1.000  C
  C368     1.0000 0.00000  0.32070  0.83200  Biso   1.000  C
  O87      1.0000 0.00000  0.45850  0.07814  Biso   1.000  O
  C369     1.0000 0.00000  0.37831  0.08104  Biso   1.000  C
  H125     1.0000 0.00000  0.37320  0.06140  Biso   1.000  H
  C370     1.0000 0.00000  0.35807  0.10424  Biso   1.000  C
  H126     1.0000 0.00000  0.33830  0.09960  Biso   1.000  H
  C371     1.0000 0.00000  0.27529  0.18805  Biso   1.000  C
  C372     1.0000 0.00000  0.32070  0.16800  Biso   1.000  C
  O88      1.0000 0.00000  0.54150  0.07814  Biso   1.000  O
  C373     1.0000 0.00000  0.62169  0.08104  Biso   1.000  C
  H127     1.0000 0.00000  0.62680  0.06140  Biso   1.000  H
  C374     1.0000 0.00000  0.64193  0.10424  Biso   1.000  C
  H128     1.0000 0.00000  0.66170  0.09960  Biso   1.000  H
  C375     1.0000 0.00000  0.72471  0.18805  Biso   1.000  C
  C376     1.0000 0.00000  0.67930  0.16800  Biso   1.000  C
  O89      1.0000 0.04150  0.57814  0.00000  Biso   1.000  O
  C377     1.0000 0.12169  0.58104  0.00000  Biso   1.000  C
  H129     1.0000 0.12680  0.56140  0.00000  Biso   1.000  H
  C378     1.0000 0.14193  0.60424  0.00000  Biso   1.000  C
  H130     1.0000 0.16170  0.59960  0.00000  Biso   1.000  H
  C379     1.0000 0.22471  0.68805  0.00000  Biso   1.000  C
  C380     1.0000 0.17930  0.66800  0.00000  Biso   1.000  C
  O90      1.0000 0.95850  0.57814  0.00000  Biso   1.000  O
  C381     1.0000 0.87831  0.58104  0.00000  Biso   1.000  C
  H131     1.0000 0.87320  0.56140  0.00000  Biso   1.000  H
  C382     1.0000 0.85807  0.60424  0.00000  Biso   1.000  C
  H132     1.0000 0.83830  0.59960  0.00000  Biso   1.000  H
  C383     1.0000 0.77529  0.68805  0.00000  Biso   1.000  C
  C384     1.0000 0.82070  0.66800  0.00000  Biso   1.000  C
  O91      1.0000 0.95850  0.42186  0.00000  Biso   1.000  O
  C385     1.0000 0.87831  0.41896  0.00000  Biso   1.000  C
  H133     1.0000 0.87320  0.43860  0.00000  Biso   1.000  H
  C386     1.0000 0.85807  0.39576  0.00000  Biso   1.000  C
  H134     1.0000 0.83830  0.40040  0.00000  Biso   1.000  H
  C387     1.0000 0.77529  0.31195  0.00000  Biso   1.000  C
  C388     1.0000 0.82070  0.33200  0.00000  Biso   1.000  C
  O92      1.0000 0.04150  0.42186  0.00000  Biso   1.000  O
  C389     1.0000 0.12169  0.41896  0.00000  Biso   1.000  C
  H135     1.0000 0.12680  0.43860  0.00000  Biso   1.000  H
  C390     1.0000 0.14193  0.39576  0.00000  Biso   1.000  C
  H136     1.0000 0.16170  0.40040  0.00000  Biso   1.000  H
  C391     1.0000 0.22471  0.31195  0.00000  Biso   1.000  C
  C392     1.0000 0.17930  0.33200  0.00000  Biso   1.000  C
  O93      1.0000 0.07814  0.50000  0.95850  Biso   1.000  O
  C393     1.0000 0.08104  0.50000  0.87831  Biso   1.000  C
  H137     1.0000 0.06140  0.50000  0.87320  Biso   1.000  H
  C394     1.0000 0.10424  0.50000  0.85807  Biso   1.000  C
  H138     1.0000 0.09960  0.50000  0.83830  Biso   1.000  H
  C395     1.0000 0.18805  0.50000  0.77529  Biso   1.000  C
  C396     1.0000 0.16800  0.50000  0.82070  Biso   1.000  C
  O94      1.0000 0.07814  0.50000  0.04150  Biso   1.000  O
  C397     1.0000 0.08104  0.50000  0.12169  Biso   1.000  C
  H139     1.0000 0.06140  0.50000  0.12680  Biso   1.000  H
  C398     1.0000 0.10424  0.50000  0.14193  Biso   1.000  C
  H140     1.0000 0.09960  0.50000  0.16170  Biso   1.000  H
  C399     1.0000 0.18805  0.50000  0.22471  Biso   1.000  C
  C400     1.0000 0.16800  0.50000  0.17930  Biso   1.000  C
  O95      1.0000 0.92186  0.50000  0.04150  Biso   1.000  O
  C401     1.0000 0.91896  0.50000  0.12169  Biso   1.000  C
  H141     1.0000 0.93860  0.50000  0.12680  Biso   1.000  H
  C402     1.0000 0.89576  0.50000  0.14193  Biso   1.000  C
  H142     1.0000 0.90040  0.50000  0.16170  Biso   1.000  H
  C403     1.0000 0.81195  0.50000  0.22471  Biso   1.000  C
  C404     1.0000 0.83200  0.50000  0.17930  Biso   1.000  C
  O96      1.0000 0.92186  0.50000  0.95850  Biso   1.000  O
  C405     1.0000 0.91896  0.50000  0.87831  Biso   1.000  C
  H143     1.0000 0.93860  0.50000  0.87320  Biso   1.000  H
  C406     1.0000 0.89576  0.50000  0.85807  Biso   1.000  C
  H144     1.0000 0.90040  0.50000  0.83830  Biso   1.000  H
  C407     1.0000 0.81195  0.50000  0.77529  Biso   1.000  C
  C408     1.0000 0.83200  0.50000  0.82070  Biso   1.000  C
  C409     1.0000 0.06846  0.50000  0.06846  Biso   1.000  C
  C410     1.0000 0.09171  0.50000  0.09171  Biso   1.000  C
  C411     1.0000 0.15591  0.50000  0.15591  Biso   1.000  C
  C412     1.0000 0.13414  0.50000  0.13414  Biso   1.000  C
  C413     1.0000 0.19544  0.50000  0.19544  Biso   1.000  C
  C414     1.0000 0.93154  0.50000  0.06846  Biso   1.000  C
  C415     1.0000 0.90829  0.50000  0.09171  Biso   1.000  C
  C416     1.0000 0.84409  0.50000  0.15591  Biso   1.000  C
  C417     1.0000 0.86586  0.50000  0.13414  Biso   1.000  C
  C418     1.0000 0.80456  0.50000  0.19544  Biso   1.000  C
  C419     1.0000 0.93154  0.50000  0.93154  Biso   1.000  C
  C420     1.0000 0.90829  0.50000  0.90829  Biso   1.000  C
  C421     1.0000 0.84409  0.50000  0.84409  Biso   1.000  C
  C422     1.0000 0.86586  0.50000  0.86586  Biso   1.000  C
  C423     1.0000 0.80456  0.50000  0.80456  Biso   1.000  C
  C424     1.0000 0.06846  0.50000  0.93154  Biso   1.000  C
  C425     1.0000 0.09171  0.50000  0.90829  Biso   1.000  C
  C426     1.0000 0.15591  0.50000  0.84409  Biso   1.000  C
  C427     1.0000 0.13414  0.50000  0.86586  Biso   1.000  C
  C428     1.0000 0.19544  0.50000  0.80456  Biso   1.000  C
  C429     1.0000 0.06846  0.56846  0.00000  Biso   1.000  C
  C430     1.0000 0.09171  0.59171  0.00000  Biso   1.000  C
  C431     1.0000 0.15591  0.65591  0.00000  Biso   1.000  C
  C432     1.0000 0.13414  0.63414  0.00000  Biso   1.000  C
  C433     1.0000 0.19544  0.69544  0.00000  Biso   1.000  C
  C434     1.0000 0.06846  0.43154  0.00000  Biso   1.000  C
  C435     1.0000 0.09171  0.40829  0.00000  Biso   1.000  C
  C436     1.0000 0.15591  0.34409  0.00000  Biso   1.000  C
  C437     1.0000 0.13414  0.36586  0.00000  Biso   1.000  C
  C438     1.0000 0.19544  0.30456  0.00000  Biso   1.000  C
  C439     1.0000 0.93154  0.43154  0.00000  Biso   1.000  C
  C440     1.0000 0.90829  0.40829  0.00000  Biso   1.000  C
  C441     1.0000 0.84409  0.34409  0.00000  Biso   1.000  C
  C442     1.0000 0.86586  0.36586  0.00000  Biso   1.000  C
  C443     1.0000 0.80456  0.30456  0.00000  Biso   1.000  C
  C444     1.0000 0.93154  0.56846  0.00000  Biso   1.000  C
  C445     1.0000 0.90829  0.59171  0.00000  Biso   1.000  C
  C446     1.0000 0.84409  0.65591  0.00000  Biso   1.000  C
  C447     1.0000 0.86586  0.63414  0.00000  Biso   1.000  C
  C448     1.0000 0.80456  0.69544  0.00000  Biso   1.000  C
  C449     1.0000 0.00000  0.56846  0.06846  Biso   1.000  C
  C450     1.0000 0.00000  0.59171  0.09171  Biso   1.000  C
  C451     1.0000 0.00000  0.65591  0.15591  Biso   1.000  C
  C452     1.0000 0.00000  0.63414  0.13414  Biso   1.000  C
  C453     1.0000 0.00000  0.69544  0.19544  Biso   1.000  C
  C454     1.0000 0.00000  0.56846  0.93154  Biso   1.000  C
  C455     1.0000 0.00000  0.59171  0.90829  Biso   1.000  C
  C456     1.0000 0.00000  0.65591  0.84409  Biso   1.000  C
  C457     1.0000 0.00000  0.63414  0.86586  Biso   1.000  C
  C458     1.0000 0.00000  0.69544  0.80456  Biso   1.000  C
  C459     1.0000 0.00000  0.43154  0.93154  Biso   1.000  C
  C460     1.0000 0.00000  0.40829  0.90829  Biso   1.000  C
  C461     1.0000 0.00000  0.34409  0.84409  Biso   1.000  C
  C462     1.0000 0.00000  0.36586  0.86586  Biso   1.000  C
  C463     1.0000 0.00000  0.30456  0.80456  Biso   1.000  C
  C464     1.0000 0.00000  0.43154  0.06846  Biso   1.000  C
  C465     1.0000 0.00000  0.40829  0.09171  Biso   1.000  C
  C466     1.0000 0.00000  0.34409  0.15591  Biso   1.000  C
  C467     1.0000 0.00000  0.36586  0.13414  Biso   1.000  C
  C468     1.0000 0.00000  0.30456  0.19544  Biso   1.000  C
  Zr19     1.0000 0.00000  0.00000  0.55373  Biso   1.000  Zr
  Zr20     1.0000 0.00000  0.00000  0.44627  Biso   1.000  Zr
  Zr21     1.0000 0.05373  0.00000  0.50000  Biso   1.000  Zr
  Zr22     1.0000 0.94627  0.00000  0.50000  Biso   1.000  Zr
  Zr23     1.0000 0.00000  0.05373  0.50000  Biso   1.000  Zr
  Zr24     1.0000 0.00000  0.94627  0.50000  Biso   1.000  Zr
  O97      1.0000 0.97361  0.97361  0.52639  Biso   1.000  O
  O98      1.0000 0.02639  0.02639  0.52639  Biso   1.000  O
  O99      1.0000 0.02639  0.97361  0.47361  Biso   1.000  O
  O100     1.0000 0.97361  0.02639  0.47361  Biso   1.000  O
  O101     1.0000 0.97361  0.97361  0.47361  Biso   1.000  O
  O102     1.0000 0.02639  0.02639  0.47361  Biso   1.000  O
  O103     1.0000 0.97361  0.02639  0.52639  Biso   1.000  O
  O104     1.0000 0.02639  0.97361  0.52639  Biso   1.000  O
  O105     1.0000 0.04150  0.00000  0.57814  Biso   1.000  O
  C469     1.0000 0.12169  0.00000  0.58104  Biso   1.000  C
  H145     1.0000 0.12680  0.00000  0.56140  Biso   1.000  H
  C470     1.0000 0.14193  0.00000  0.60424  Biso   1.000  C
  H146     1.0000 0.16170  0.00000  0.59960  Biso   1.000  H
  C471     1.0000 0.22471  0.00000  0.68805  Biso   1.000  C
  C472     1.0000 0.17930  0.00000  0.66800  Biso   1.000  C
  O106     1.0000 0.95850  0.00000  0.57814  Biso   1.000  O
  C473     1.0000 0.87831  0.00000  0.58104  Biso   1.000  C
  H147     1.0000 0.87320  0.00000  0.56140  Biso   1.000  H
  C474     1.0000 0.85807  0.00000  0.60424  Biso   1.000  C
  H148     1.0000 0.83830  0.00000  0.59960  Biso   1.000  H
  C475     1.0000 0.77529  0.00000  0.68805  Biso   1.000  C
  C476     1.0000 0.82070  0.00000  0.66800  Biso   1.000  C
  O107     1.0000 0.95850  0.00000  0.42186  Biso   1.000  O
  C477     1.0000 0.87831  0.00000  0.41896  Biso   1.000  C
  H149     1.0000 0.87320  0.00000  0.43860  Biso   1.000  H
  C478     1.0000 0.85807  0.00000  0.39576  Biso   1.000  C
  H150     1.0000 0.83830  0.00000  0.40040  Biso   1.000  H
  C479     1.0000 0.77529  0.00000  0.31195  Biso   1.000  C
  C480     1.0000 0.82070  0.00000  0.33200  Biso   1.000  C
  O108     1.0000 0.04150  0.00000  0.42186  Biso   1.000  O
  C481     1.0000 0.12169  0.00000  0.41896  Biso   1.000  C
  H151     1.0000 0.12680  0.00000  0.43860  Biso   1.000  H
  C482     1.0000 0.14193  0.00000  0.39576  Biso   1.000  C
  H152     1.0000 0.16170  0.00000  0.40040  Biso   1.000  H
  C483     1.0000 0.22471  0.00000  0.31195  Biso   1.000  C
  C484     1.0000 0.17930  0.00000  0.33200  Biso   1.000  C
  O109     1.0000 0.07814  0.04150  0.50000  Biso   1.000  O
  C485     1.0000 0.08104  0.12169  0.50000  Biso   1.000  C
  H153     1.0000 0.06140  0.12680  0.50000  Biso   1.000  H
  C486     1.0000 0.10424  0.14193  0.50000  Biso   1.000  C
  H154     1.0000 0.09960  0.16170  0.50000  Biso   1.000  H
  C487     1.0000 0.18805  0.22471  0.50000  Biso   1.000  C
  C488     1.0000 0.16800  0.17930  0.50000  Biso   1.000  C
  O110     1.0000 0.07814  0.95850  0.50000  Biso   1.000  O
  C489     1.0000 0.08104  0.87831  0.50000  Biso   1.000  C
  H155     1.0000 0.06140  0.87320  0.50000  Biso   1.000  H
  C490     1.0000 0.10424  0.85807  0.50000  Biso   1.000  C
  H156     1.0000 0.09960  0.83830  0.50000  Biso   1.000  H
  C491     1.0000 0.18805  0.77529  0.50000  Biso   1.000  C
  C492     1.0000 0.16800  0.82070  0.50000  Biso   1.000  C
  O111     1.0000 0.92186  0.95850  0.50000  Biso   1.000  O
  C493     1.0000 0.91896  0.87831  0.50000  Biso   1.000  C
  H157     1.0000 0.93860  0.87320  0.50000  Biso   1.000  H
  C494     1.0000 0.89576  0.85807  0.50000  Biso   1.000  C
  H158     1.0000 0.90040  0.83830  0.50000  Biso   1.000  H
  C495     1.0000 0.81195  0.77529  0.50000  Biso   1.000  C
  C496     1.0000 0.83200  0.82070  0.50000  Biso   1.000  C
  O112     1.0000 0.92186  0.04150  0.50000  Biso   1.000  O
  C497     1.0000 0.91896  0.12169  0.50000  Biso   1.000  C
  H159     1.0000 0.93860  0.12680  0.50000  Biso   1.000  H
  C498     1.0000 0.89576  0.14193  0.50000  Biso   1.000  C
  H160     1.0000 0.90040  0.16170  0.50000  Biso   1.000  H
  C499     1.0000 0.81195  0.22471  0.50000  Biso   1.000  C
  C500     1.0000 0.83200  0.17930  0.50000  Biso   1.000  C
  O113     1.0000 0.00000  0.07814  0.54150  Biso   1.000  O
  C501     1.0000 0.00000  0.08104  0.62169  Biso   1.000  C
  H161     1.0000 0.00000  0.06140  0.62680  Biso   1.000  H
  C502     1.0000 0.00000  0.10424  0.64193  Biso   1.000  C
  H162     1.0000 0.00000  0.09960  0.66170  Biso   1.000  H
  C503     1.0000 0.00000  0.18805  0.72471  Biso   1.000  C
  C504     1.0000 0.00000  0.16800  0.67930  Biso   1.000  C
  O114     1.0000 0.00000  0.07814  0.45850  Biso   1.000  O
  C505     1.0000 0.00000  0.08104  0.37831  Biso   1.000  C
  H163     1.0000 0.00000  0.06140  0.37320  Biso   1.000  H
  C506     1.0000 0.00000  0.10424  0.35807  Biso   1.000  C
  H164     1.0000 0.00000  0.09960  0.33830  Biso   1.000  H
  C507     1.0000 0.00000  0.18805  0.27529  Biso   1.000  C
  C508     1.0000 0.00000  0.16800  0.32070  Biso   1.000  C
  O115     1.0000 0.00000  0.92186  0.45850  Biso   1.000  O
  C509     1.0000 0.00000  0.91896  0.37831  Biso   1.000  C
  H165     1.0000 0.00000  0.93860  0.37320  Biso   1.000  H
  C510     1.0000 0.00000  0.89576  0.35807  Biso   1.000  C
  H166     1.0000 0.00000  0.90040  0.33830  Biso   1.000  H
  C511     1.0000 0.00000  0.81195  0.27529  Biso   1.000  C
  C512     1.0000 0.00000  0.83200  0.32070  Biso   1.000  C
  O116     1.0000 0.00000  0.92186  0.54150  Biso   1.000  O
  C513     1.0000 0.00000  0.91896  0.62169  Biso   1.000  C
  H167     1.0000 0.00000  0.93860  0.62680  Biso   1.000  H
  C514     1.0000 0.00000  0.89576  0.64193  Biso   1.000  C
  H168     1.0000 0.00000  0.90040  0.66170  Biso   1.000  H
  C515     1.0000 0.00000  0.81195  0.72471  Biso   1.000  C
  C516     1.0000 0.00000  0.83200  0.67930  Biso   1.000  C
  O117     1.0000 0.00000  0.04150  0.42186  Biso   1.000  O
  C517     1.0000 0.00000  0.12169  0.41896  Biso   1.000  C
  H169     1.0000 0.00000  0.12680  0.43860  Biso   1.000  H
  C518     1.0000 0.00000  0.14193  0.39576  Biso   1.000  C
  H170     1.0000 0.00000  0.16170  0.40040  Biso   1.000  H
  C519     1.0000 0.00000  0.22471  0.31195  Biso   1.000  C
  C520     1.0000 0.00000  0.17930  0.33200  Biso   1.000  C
  O118     1.0000 0.00000  0.95850  0.42186  Biso   1.000  O
  C521     1.0000 0.00000  0.87831  0.41896  Biso   1.000  C
  H171     1.0000 0.00000  0.87320  0.43860  Biso   1.000  H
  C522     1.0000 0.00000  0.85807  0.39576  Biso   1.000  C
  H172     1.0000 0.00000  0.83830  0.40040  Biso   1.000  H
  C523     1.0000 0.00000  0.77529  0.31195  Biso   1.000  C
  C524     1.0000 0.00000  0.82070  0.33200  Biso   1.000  C
  O119     1.0000 0.00000  0.95850  0.57814  Biso   1.000  O
  C525     1.0000 0.00000  0.87831  0.58104  Biso   1.000  C
  H173     1.0000 0.00000  0.87320  0.56140  Biso   1.000  H
  C526     1.0000 0.00000  0.85807  0.60424  Biso   1.000  C
  H174     1.0000 0.00000  0.83830  0.59960  Biso   1.000  H
  C527     1.0000 0.00000  0.77529  0.68805  Biso   1.000  C
  C528     1.0000 0.00000  0.82070  0.66800  Biso   1.000  C
  O120     1.0000 0.00000  0.04150  0.57814  Biso   1.000  O
  C529     1.0000 0.00000  0.12169  0.58104  Biso   1.000  C
  H175     1.0000 0.00000  0.12680  0.56140  Biso   1.000  H
  C530     1.0000 0.00000  0.14193  0.60424  Biso   1.000  C
  H176     1.0000 0.00000  0.16170  0.59960  Biso   1.000  H
  C531     1.0000 0.00000  0.22471  0.68805  Biso   1.000  C
  C532     1.0000 0.00000  0.17930  0.66800  Biso   1.000  C
  O121     1.0000 0.04150  0.07814  0.50000  Biso   1.000  O
  C533     1.0000 0.12169  0.08104  0.50000  Biso   1.000  C
  H177     1.0000 0.12680  0.06140  0.50000  Biso   1.000  H
  C534     1.0000 0.14193  0.10424  0.50000  Biso   1.000  C
  H178     1.0000 0.16170  0.09960  0.50000  Biso   1.000  H
  C535     1.0000 0.22471  0.18805  0.50000  Biso   1.000  C
  C536     1.0000 0.17930  0.16800  0.50000  Biso   1.000  C
  O122     1.0000 0.95850  0.07814  0.50000  Biso   1.000  O
  C537     1.0000 0.87831  0.08104  0.50000  Biso   1.000  C
  H179     1.0000 0.87320  0.06140  0.50000  Biso   1.000  H
  C538     1.0000 0.85807  0.10424  0.50000  Biso   1.000  C
  H180     1.0000 0.83830  0.09960  0.50000  Biso   1.000  H
  C539     1.0000 0.77529  0.18805  0.50000  Biso   1.000  C
  C540     1.0000 0.82070  0.16800  0.50000  Biso   1.000  C
  O123     1.0000 0.95850  0.92186  0.50000  Biso   1.000  O
  C541     1.0000 0.87831  0.91896  0.50000  Biso   1.000  C
  H181     1.0000 0.87320  0.93860  0.50000  Biso   1.000  H
  C542     1.0000 0.85807  0.89576  0.50000  Biso   1.000  C
  H182     1.0000 0.83830  0.90040  0.50000  Biso   1.000  H
  C543     1.0000 0.77529  0.81195  0.50000  Biso   1.000  C
  C544     1.0000 0.82070  0.83200  0.50000  Biso   1.000  C
  O124     1.0000 0.04150  0.92186  0.50000  Biso   1.000  O
  C545     1.0000 0.12169  0.91896  0.50000  Biso   1.000  C
  H183     1.0000 0.12680  0.93860  0.50000  Biso   1.000  H
  C546     1.0000 0.14193  0.89576  0.50000  Biso   1.000  C
  H184     1.0000 0.16170  0.90040  0.50000  Biso   1.000  H
  C547     1.0000 0.22471  0.81195  0.50000  Biso   1.000  C
  C548     1.0000 0.17930  0.83200  0.50000  Biso   1.000  C
  O125     1.0000 0.07814  0.00000  0.45850  Biso   1.000  O
  C549     1.0000 0.08104  0.00000  0.37831  Biso   1.000  C
  H185     1.0000 0.06140  0.00000  0.37320  Biso   1.000  H
  C550     1.0000 0.10424  0.00000  0.35807  Biso   1.000  C
  H186     1.0000 0.09960  0.00000  0.33830  Biso   1.000  H
  C551     1.0000 0.18805  0.00000  0.27529  Biso   1.000  C
  C552     1.0000 0.16800  0.00000  0.32070  Biso   1.000  C
  O126     1.0000 0.07814  0.00000  0.54150  Biso   1.000  O
  C553     1.0000 0.08104  0.00000  0.62169  Biso   1.000  C
  H187     1.0000 0.06140  0.00000  0.62680  Biso   1.000  H
  C554     1.0000 0.10424  0.00000  0.64193  Biso   1.000  C
  H188     1.0000 0.09960  0.00000  0.66170  Biso   1.000  H
  C555     1.0000 0.18805  0.00000  0.72471  Biso   1.000  C
  C556     1.0000 0.16800  0.00000  0.67930  Biso   1.000  C
  O127     1.0000 0.92186  0.00000  0.54150  Biso   1.000  O
  C557     1.0000 0.91896  0.00000  0.62169  Biso   1.000  C
  H189     1.0000 0.93860  0.00000  0.62680  Biso   1.000  H
  C558     1.0000 0.89576  0.00000  0.64193  Biso   1.000  C
  H190     1.0000 0.90040  0.00000  0.66170  Biso   1.000  H
  C559     1.0000 0.81195  0.00000  0.72471  Biso   1.000  C
  C560     1.0000 0.83200  0.00000  0.67930  Biso   1.000  C
  O128     1.0000 0.92186  0.00000  0.45850  Biso   1.000  O
  C561     1.0000 0.91896  0.00000  0.37831  Biso   1.000  C
  H191     1.0000 0.93860  0.00000  0.37320  Biso   1.000  H
  C562     1.0000 0.89576  0.00000  0.35807  Biso   1.000  C
  H192     1.0000 0.90040  0.00000  0.33830  Biso   1.000  H
  C563     1.0000 0.81195  0.00000  0.27529  Biso   1.000  C
  C564     1.0000 0.83200  0.00000  0.32070  Biso   1.000  C
  C565     1.0000 0.06846  0.00000  0.56846  Biso   1.000  C
  C566     1.0000 0.09171  0.00000  0.59171  Biso   1.000  C
  C567     1.0000 0.15591  0.00000  0.65591  Biso   1.000  C
  C568     1.0000 0.13414  0.00000  0.63414  Biso   1.000  C
  C569     1.0000 0.19544  0.00000  0.69544  Biso   1.000  C
  C570     1.0000 0.93154  0.00000  0.56846  Biso   1.000  C
  C571     1.0000 0.90829  0.00000  0.59171  Biso   1.000  C
  C572     1.0000 0.84409  0.00000  0.65591  Biso   1.000  C
  C573     1.0000 0.86586  0.00000  0.63414  Biso   1.000  C
  C574     1.0000 0.80456  0.00000  0.69544  Biso   1.000  C
  C575     1.0000 0.93154  0.00000  0.43154  Biso   1.000  C
  C576     1.0000 0.90829  0.00000  0.40829  Biso   1.000  C
  C577     1.0000 0.84409  0.00000  0.34409  Biso   1.000  C
  C578     1.0000 0.86586  0.00000  0.36586  Biso   1.000  C
  C579     1.0000 0.80456  0.00000  0.30456  Biso   1.000  C
  C580     1.0000 0.06846  0.00000  0.43154  Biso   1.000  C
  C581     1.0000 0.09171  0.00000  0.40829  Biso   1.000  C
  C582     1.0000 0.15591  0.00000  0.34409  Biso   1.000  C
  C583     1.0000 0.13414  0.00000  0.36586  Biso   1.000  C
  C584     1.0000 0.19544  0.00000  0.30456  Biso   1.000  C
  C585     1.0000 0.06846  0.06846  0.50000  Biso   1.000  C
  C586     1.0000 0.09171  0.09171  0.50000  Biso   1.000  C
  C587     1.0000 0.15591  0.15591  0.50000  Biso   1.000  C
  C588     1.0000 0.13414  0.13414  0.50000  Biso   1.000  C
  C589     1.0000 0.19544  0.19544  0.50000  Biso   1.000  C
  C590     1.0000 0.06846  0.93154  0.50000  Biso   1.000  C
  C591     1.0000 0.09171  0.90829  0.50000  Biso   1.000  C
  C592     1.0000 0.15591  0.84409  0.50000  Biso   1.000  C
  C593     1.0000 0.13414  0.86586  0.50000  Biso   1.000  C
  C594     1.0000 0.19544  0.80456  0.50000  Biso   1.000  C
  C595     1.0000 0.93154  0.93154  0.50000  Biso   1.000  C
  C596     1.0000 0.90829  0.90829  0.50000  Biso   1.000  C
  C597     1.0000 0.84409  0.84409  0.50000  Biso   1.000  C
  C598     1.0000 0.86586  0.86586  0.50000  Biso   1.000  C
  C599     1.0000 0.80456  0.80456  0.50000  Biso   1.000  C
  C600     1.0000 0.93154  0.06846  0.50000  Biso   1.000  C
  C601     1.0000 0.90829  0.09171  0.50000  Biso   1.000  C
  C602     1.0000 0.84409  0.15591  0.50000  Biso   1.000  C
  C603     1.0000 0.86586  0.13414  0.50000  Biso   1.000  C
  C604     1.0000 0.80456  0.19544  0.50000  Biso   1.000  C
  C605     1.0000 0.00000  0.06846  0.56846  Biso   1.000  C
  C606     1.0000 0.00000  0.09171  0.59171  Biso   1.000  C
  C607     1.0000 0.00000  0.15591  0.65591  Biso   1.000  C
  C608     1.0000 0.00000  0.13414  0.63414  Biso   1.000  C
  C609     1.0000 0.00000  0.19544  0.69544  Biso   1.000  C
  C610     1.0000 0.00000  0.06846  0.43154  Biso   1.000  C
  C611     1.0000 0.00000  0.09171  0.40829  Biso   1.000  C
  C612     1.0000 0.00000  0.15591  0.34409  Biso   1.000  C
  C613     1.0000 0.00000  0.13414  0.36586  Biso   1.000  C
  C614     1.0000 0.00000  0.19544  0.30456  Biso   1.000  C
  C615     1.0000 0.00000  0.93154  0.43154  Biso   1.000  C
  C616     1.0000 0.00000  0.90829  0.40829  Biso   1.000  C
  C617     1.0000 0.00000  0.84409  0.34409  Biso   1.000  C
  C618     1.0000 0.00000  0.86586  0.36586  Biso   1.000  C
  C619     1.0000 0.00000  0.80456  0.30456  Biso   1.000  C
  C620     1.0000 0.00000  0.93154  0.56846  Biso   1.000  C
  C621     1.0000 0.00000  0.90829  0.59171  Biso   1.000  C
  C622     1.0000 0.00000  0.84409  0.65591  Biso   1.000  C
  C623     1.0000 0.00000  0.86586  0.63414  Biso   1.000  C
  C624     1.0000 0.00000  0.80456  0.69544  Biso   1.000  C
