data_image0
_cell_length_a       32.8826
_cell_length_b       30.1786
_cell_length_c       40.0732
_cell_angle_alpha    90
_cell_angle_beta     96.498
_cell_angle_gamma    90

_symmetry_space_group_name_H-M    "P 1"
_symmetry_int_tables_number       1

loop_
  _symmetry_equiv_pos_as_xyz
  'x, y, z'

loop_
  _atom_site_label
  _atom_site_occupancy
  _atom_site_fract_x
  _atom_site_fract_y
  _atom_site_fract_z
  _atom_site_thermal_displace_type
  _atom_site_B_iso_or_equiv
  _atom_site_type_symbol
  Co1      1.0000 0.76598  0.04139  0.61576  Biso   1.000  Co
  Co2      1.0000 0.64439  0.71391  0.72376  Biso   1.000  Co
  Co3      1.0000 0.59873  0.98348  0.36114  Biso   1.000  Co
  Co4      1.0000 0.01310  0.84175  0.53503  Biso   1.000  Co
  N1       1.0000 0.79961  0.04302  0.57331  Biso   1.000  N
  C1       1.0000 0.79251  0.00708  0.55174  Biso   1.000  C
  C2       1.0000 0.81038  0.00570  0.52195  Biso   1.000  C
  H1       1.0000 0.80550  0.98110  0.50720  Biso   1.000  H
  C3       1.0000 0.83537  0.04025  0.51372  Biso   1.000  C
  H2       1.0000 0.84760  0.03930  0.49340  Biso   1.000  H
  C4       1.0000 0.84247  0.07618  0.53529  Biso   1.000  C
  H3       1.0000 0.85950  0.09980  0.52970  Biso   1.000  H
  C5       1.0000 0.82459  0.07757  0.56509  Biso   1.000  C
  H4       1.0000 0.82940  0.10210  0.57980  Biso   1.000  H
  N2       1.0000 0.74492  0.98207  0.58863  Biso   1.000  N
  N3       1.0000 0.71649  0.94678  0.58942  Biso   1.000  N
  C6       1.0000 0.71989  0.91927  0.56112  Biso   1.000  C
  H5       1.0000 0.70450  0.89320  0.55540  Biso   1.000  H
  C7       1.0000 0.75043  0.93757  0.54284  Biso   1.000  C
  H6       1.0000 0.75900  0.92590  0.52280  Biso   1.000  H
  C8       1.0000 0.76590  0.97638  0.55984  Biso   1.000  C
  C9       1.0000 0.69260  0.93900  0.61500  Biso   1.000  C
  H7       1.0000 0.66630  0.92600  0.60520  Biso   1.000  H
  H8       1.0000 0.68650  0.96770  0.62530  Biso   1.000  H
  N4       1.0000 0.59863  0.70033  0.75819  Biso   1.000  N
  C10      1.0000 0.59856  0.73065  0.78429  Biso   1.000  C
  C11      1.0000 0.57203  0.72491  0.80860  Biso   1.000  C
  H9       1.0000 0.57200  0.74560  0.82640  Biso   1.000  H
  C12      1.0000 0.54556  0.68890  0.80679  Biso   1.000  C
  H10      1.0000 0.52740  0.68490  0.82340  Biso   1.000  H
  C13      1.0000 0.54563  0.65855  0.78069  Biso   1.000  C
  H11      1.0000 0.52750  0.63390  0.77950  Biso   1.000  H
  C14      1.0000 0.57216  0.66428  0.75638  Biso   1.000  C
  H12      1.0000 0.57220  0.64360  0.73850  Biso   1.000  H
  N5       1.0000 0.65325  0.76531  0.75968  Biso   1.000  N
  N6       1.0000 0.67979  0.80202  0.76693  Biso   1.000  N
  C15      1.0000 0.66890  0.82288  0.79641  Biso   1.000  C
  H13      1.0000 0.68160  0.84830  0.80690  Biso   1.000  H
  C16      1.0000 0.63561  0.79907  0.80738  Biso   1.000  C
  H14      1.0000 0.62220  0.80580  0.82650  Biso   1.000  H
  C17      1.0000 0.62594  0.76348  0.78468  Biso   1.000  C
  C18      1.0000 0.70580  0.81650  0.74447  Biso   1.000  C
  H15      1.0000 0.71650  0.79030  0.73340  Biso   1.000  H
  H16      1.0000 0.72940  0.83160  0.75720  Biso   1.000  H
  C19      1.0000 0.71212  0.90807  0.64263  Biso   1.000  C
  C20      1.0000 0.75271  0.89555  0.64201  Biso   1.000  C
  H17      1.0000 0.76780  0.90640  0.62490  Biso   1.000  H
  C21      1.0000 0.77125  0.86718  0.66649  Biso   1.000  C
  H18      1.0000 0.79900  0.85860  0.66610  Biso   1.000  H
  C22      1.0000 0.74920  0.85131  0.69160  Biso   1.000  C
  H19      1.0000 0.76190  0.83190  0.70830  Biso   1.000  H
  C23      1.0000 0.70861  0.86383  0.69222  Biso   1.000  C
  C24      1.0000 0.69007  0.89220  0.66773  Biso   1.000  C
  C25      1.0000 0.64948  0.90472  0.66835  Biso   1.000  C
  H20      1.0000 0.63680  0.92410  0.65160  Biso   1.000  H
  C26      1.0000 0.62743  0.88885  0.69346  Biso   1.000  C
  H21      1.0000 0.59970  0.89740  0.69390  Biso   1.000  H
  C27      1.0000 0.64596  0.86047  0.71794  Biso   1.000  C
  H22      1.0000 0.63090  0.84960  0.73510  Biso   1.000  H
  C28      1.0000 0.68655  0.84796  0.71732  Biso   1.000  C
  N7       1.0000 0.79087  0.10319  0.63630  Biso   1.000  N
  C29      1.0000 0.76798  0.14040  0.62584  Biso   1.000  C
  C30      1.0000 0.78264  0.18246  0.63477  Biso   1.000  C
  H23      1.0000 0.76700  0.20790  0.62760  Biso   1.000  H
  C31      1.0000 0.82018  0.18730  0.65416  Biso   1.000  C
  H24      1.0000 0.83020  0.21600  0.66030  Biso   1.000  H
  C32      1.0000 0.84306  0.15009  0.66463  Biso   1.000  C
  H25      1.0000 0.86870  0.15340  0.67790  Biso   1.000  H
  C33      1.0000 0.82841  0.10803  0.65570  Biso   1.000  C
  H26      1.0000 0.84410  0.08260  0.66280  Biso   1.000  H
  N8       1.0000 0.72474  0.08982  0.59357  Biso   1.000  N
  N9       1.0000 0.68533  0.08955  0.57497  Biso   1.000  N
  C34      1.0000 0.66862  0.13282  0.57631  Biso   1.000  C
  H27      1.0000 0.64260  0.14210  0.56600  Biso   1.000  H
  C35      1.0000 0.69770  0.15982  0.59574  Biso   1.000  C
  H28      1.0000 0.69450  0.19030  0.60070  Biso   1.000  H
  C36      1.0000 0.73238  0.13325  0.60641  Biso   1.000  C
  C37      1.0000 0.67220  0.05420  0.55525  Biso   1.000  C
  H29      1.0000 0.64210  0.05610  0.55010  Biso   1.000  H
  H30      1.0000 0.67840  0.02670  0.56830  Biso   1.000  H
  N10      1.0000 0.58021  0.92540  0.33425  Biso   1.000  N
  C38      1.0000 0.60383  0.88801  0.34272  Biso   1.000  C
  C39      1.0000 0.59206  0.84714  0.32883  Biso   1.000  C
  H31      1.0000 0.60820  0.82160  0.33460  Biso   1.000  H
  C40      1.0000 0.55666  0.84366  0.30648  Biso   1.000  C
  H32      1.0000 0.54860  0.81570  0.29700  Biso   1.000  H
  C41      1.0000 0.53304  0.88105  0.29802  Biso   1.000  C
  H33      1.0000 0.50880  0.87870  0.28270  Biso   1.000  H
  C42      1.0000 0.54481  0.92192  0.31190  Biso   1.000  C
  H34      1.0000 0.52870  0.94750  0.30610  Biso   1.000  H
  N11      1.0000 0.64797  0.93837  0.37576  Biso   1.000  N
  N12      1.0000 0.68693  0.93728  0.39506  Biso   1.000  N
  C43      1.0000 0.70176  0.89309  0.39493  Biso   1.000  C
  H35      1.0000 0.72720  0.88290  0.40590  Biso   1.000  H
  C44      1.0000 0.67196  0.86688  0.37555  Biso   1.000  C
  H36      1.0000 0.67390  0.83600  0.37130  Biso   1.000  H
  C45      1.0000 0.63872  0.89487  0.36371  Biso   1.000  C
  C46      1.0000 0.70320  0.97180  0.41465  Biso   1.000  C
  H37      1.0000 0.69650  0.99980  0.40250  Biso   1.000  H
  H38      1.0000 0.73340  0.96870  0.41750  Biso   1.000  H
  C47      1.0000 0.69102  0.05016  0.52190  Biso   1.000  C
  C48      1.0000 0.71717  0.08306  0.51273  Biso   1.000  C
  H39      1.0000 0.72370  0.10760  0.52720  Biso   1.000  H
  C49      1.0000 0.73378  0.08001  0.48242  Biso   1.000  C
  H40      1.0000 0.75170  0.10250  0.47610  Biso   1.000  H
  C50      1.0000 0.72424  0.04407  0.46129  Biso   1.000  C
  H41      1.0000 0.73560  0.04200  0.44060  Biso   1.000  H
  C51      1.0000 0.69809  0.01117  0.47046  Biso   1.000  C
  C52      1.0000 0.68148  0.01422  0.50077  Biso   1.000  C
  C53      1.0000 0.65533  0.98132  0.50995  Biso   1.000  C
  H42      1.0000 0.64400  0.98340  0.53070  Biso   1.000  H
  C54      1.0000 0.64578  0.94537  0.48882  Biso   1.000  C
  H43      1.0000 0.62790  0.92290  0.49510  Biso   1.000  H
  C55      1.0000 0.66239  0.94233  0.45851  Biso   1.000  C
  H44      1.0000 0.65590  0.91780  0.44410  Biso   1.000  H
  C56      1.0000 0.68854  0.97522  0.44933  Biso   1.000  C
  N13      1.0000 0.72867  0.03204  0.65540  Biso   1.000  N
  C57      1.0000 0.74637  0.00629  0.68193  Biso   1.000  C
  C58      1.0000 0.72363  0.99428  0.70770  Biso   1.000  C
  H45      1.0000 0.73570  0.97670  0.72580  Biso   1.000  H
  C59      1.0000 0.68319  0.00802  0.70695  Biso   1.000  C
  H46      1.0000 0.66760  0.99980  0.72460  Biso   1.000  H
  C60      1.0000 0.66549  0.03377  0.68043  Biso   1.000  C
  H47      1.0000 0.63780  0.04320  0.67990  Biso   1.000  H
  C61      1.0000 0.68823  0.04578  0.65466  Biso   1.000  C
  H48      1.0000 0.67610  0.06340  0.63650  Biso   1.000  H
  N14      1.0000 0.80550  0.00751  0.65273  Biso   1.000  N
  N15      1.0000 0.84762  0.99630  0.65884  Biso   1.000  N
  C62      1.0000 0.85486  0.97830  0.69171  Biso   1.000  C
  H49      1.0000 0.88040  0.96800  0.70230  Biso   1.000  H
  C63      1.0000 0.81721  0.97840  0.70592  Biso   1.000  C
  H50      1.0000 0.81310  0.96820  0.72770  Biso   1.000  H
  C64      1.0000 0.78670  0.99644  0.68182  Biso   1.000  C
  C65      1.0000 0.87350  0.00050  0.63480  Biso   1.000  C
  H51      1.0000 0.90190  0.00260  0.64610  Biso   1.000  H
  H52      1.0000 0.86730  0.02860  0.62260  Biso   1.000  H
  N16      1.0000 0.05252  0.83696  0.49509  Biso   1.000  N
  C66      1.0000 0.03733  0.85781  0.46533  Biso   1.000  C
  C67      1.0000 0.05892  0.85557  0.43749  Biso   1.000  C
  H53      1.0000 0.04850  0.86980  0.41720  Biso   1.000  H
  C68      1.0000 0.09569  0.83249  0.43941  Biso   1.000  C
  H54      1.0000 0.11040  0.83100  0.42040  Biso   1.000  H
  C69      1.0000 0.11087  0.81164  0.46916  Biso   1.000  C
  H55      1.0000 0.13600  0.79590  0.47050  Biso   1.000  H
  C70      1.0000 0.08929  0.81388  0.49700  Biso   1.000  C
  H56      1.0000 0.09970  0.79960  0.51730  Biso   1.000  H
  N17      1.0000 0.97764  0.86964  0.49245  Biso   1.000  N
  N18      1.0000 0.93841  0.88920  0.48483  Biso   1.000  N
  C71      1.0000 0.93634  0.90768  0.45210  Biso   1.000  C
  H57      1.0000 0.91360  0.92280  0.44060  Biso   1.000  H
  C72      1.0000 0.97430  0.89954  0.43948  Biso   1.000  C
  H58      1.0000 0.98140  0.90830  0.41810  Biso   1.000  H
  C73      1.0000 0.99982  0.87603  0.46442  Biso   1.000  C
  C74      1.0000 0.90975  0.88990  0.50708  Biso   1.000  C
  H59      1.0000 0.91210  0.86210  0.52030  Biso   1.000  H
  H60      1.0000 0.88220  0.89020  0.49420  Biso   1.000  H
  C75      1.0000 0.87181  0.96303  0.60924  Biso   1.000  C
  C76      1.0000 0.84643  0.92738  0.61422  Biso   1.000  C
  H61      1.0000 0.83130  0.92700  0.63310  Biso   1.000  H
  C77      1.0000 0.84317  0.89226  0.59163  Biso   1.000  C
  H62      1.0000 0.82580  0.86790  0.59500  Biso   1.000  H
  C78      1.0000 0.86530  0.89280  0.56406  Biso   1.000  C
  H63      1.0000 0.86310  0.86880  0.54860  Biso   1.000  H
  C79      1.0000 0.89068  0.92846  0.55908  Biso   1.000  C
  C80      1.0000 0.89394  0.96358  0.58167  Biso   1.000  C
  C81      1.0000 0.91932  0.99924  0.57670  Biso   1.000  C
  H64      1.0000 0.92150  0.02320  0.59210  Biso   1.000  H
  C82      1.0000 0.94145  0.99978  0.54913  Biso   1.000  C
  H65      1.0000 0.95880  0.02420  0.54570  Biso   1.000  H
  C83      1.0000 0.93820  0.96467  0.52654  Biso   1.000  C
  H66      1.0000 0.95330  0.96500  0.50770  Biso   1.000  H
  C84      1.0000 0.91281  0.92901  0.53152  Biso   1.000  C
  N19      1.0000 0.68853  0.67145  0.75035  Biso   1.000  N
  C85      1.0000 0.68635  0.62723  0.74062  Biso   1.000  C
  C86      1.0000 0.71567  0.59731  0.75450  Biso   1.000  C
  H67      1.0000 0.71420  0.56710  0.74780  Biso   1.000  H
  C87      1.0000 0.74716  0.61162  0.77810  Biso   1.000  C
  H68      1.0000 0.76720  0.59120  0.78760  Biso   1.000  H
  C88      1.0000 0.74934  0.65584  0.78783  Biso   1.000  C
  H69      1.0000 0.77090  0.66560  0.80400  Biso   1.000  H
  C89      1.0000 0.72003  0.68576  0.77396  Biso   1.000  C
  H70      1.0000 0.72150  0.71600  0.78060  Biso   1.000  H
  N20      1.0000 0.63037  0.65022  0.70190  Biso   1.000  N
  N21      1.0000 0.59849  0.63049  0.67999  Biso   1.000  N
  C90      1.0000 0.60363  0.58380  0.68180  Biso   1.000  C
  H71      1.0000 0.58660  0.56240  0.66970  Biso   1.000  H
  C91      1.0000 0.63869  0.57468  0.70484  Biso   1.000  C
  H72      1.0000 0.64920  0.54610  0.71090  Biso   1.000  H
  C92      1.0000 0.65522  0.61573  0.71726  Biso   1.000  C
  C93      1.0000 0.57010  0.65470  0.65927  Biso   1.000  C
  H73      1.0000 0.56310  0.68170  0.67140  Biso   1.000  H
  H74      1.0000 0.54480  0.63690  0.65480  Biso   1.000  H
  N22      1.0000 0.44189  0.68920  0.42934  Biso   1.000  N
  C94      1.0000 0.44221  0.73524  0.43042  Biso   1.000  C
  C95      1.0000 0.41358  0.75924  0.40955  Biso   1.000  C
  H75      1.0000 0.41380  0.79070  0.41030  Biso   1.000  H
  C96      1.0000 0.38464  0.73721  0.38760  Biso   1.000  C
  H76      1.0000 0.36510  0.75360  0.37330  Biso   1.000  H
  C97      1.0000 0.38432  0.69117  0.38652  Biso   1.000  C
  H77      1.0000 0.36450  0.67610  0.37150  Biso   1.000  H
  C98      1.0000 0.41294  0.66717  0.40740  Biso   1.000  C
  H78      1.0000 0.41270  0.63570  0.40670  Biso   1.000  H
  N23      1.0000 0.50100  0.72660  0.47090  Biso   1.000  N
  N24      1.0000 0.52891  0.75426  0.49092  Biso   1.000  N
  C99      1.0000 0.51706  0.79897  0.48446  Biso   1.000  C
  H79      1.0000 0.53040  0.82440  0.49440  Biso   1.000  H
  C100     1.0000 0.48183  0.79894  0.46044  Biso   1.000  C
  H80      1.0000 0.46740  0.82440  0.45150  Biso   1.000  H
  C101     1.0000 0.47190  0.75421  0.45206  Biso   1.000  C
  C102     1.0000 0.55910  0.73890  0.51384  Biso   1.000  C
  H81      1.0000 0.58140  0.76120  0.51640  Biso   1.000  H
  H82      1.0000 0.57050  0.71160  0.50480  Biso   1.000  H
  C103     1.0000 0.58420  0.66841  0.62570  Biso   1.000  C
  C104     1.0000 0.62246  0.65461  0.61819  Biso   1.000  C
  H83      1.0000 0.63970  0.63780  0.63410  Biso   1.000  H
  C105     1.0000 0.63553  0.66543  0.58741  Biso   1.000  C
  H84      1.0000 0.66170  0.65600  0.58230  Biso   1.000  H
  C106     1.0000 0.61034  0.69005  0.56415  Biso   1.000  C
  H85      1.0000 0.61930  0.69740  0.54310  Biso   1.000  H
  C107     1.0000 0.57209  0.70385  0.57167  Biso   1.000  C
  C108     1.0000 0.55902  0.69303  0.60244  Biso   1.000  C
  C109     1.0000 0.52076  0.70683  0.60995  Biso   1.000  C
  H86      1.0000 0.51180  0.69940  0.63100  Biso   1.000  H
  C110     1.0000 0.49558  0.73145  0.58669  Biso   1.000  C
  H87      1.0000 0.46940  0.74090  0.59180  Biso   1.000  H
  C111     1.0000 0.50865  0.74227  0.55592  Biso   1.000  C
  H88      1.0000 0.49140  0.75910  0.54000  Biso   1.000  H
  C112     1.0000 0.54690  0.72847  0.54840  Biso   1.000  C
  N25      1.0000 0.60488  0.75433  0.69108  Biso   1.000  N
  C113     1.0000 0.62189  0.76998  0.66313  Biso   1.000  C
  C114     1.0000 0.59866  0.79602  0.63953  Biso   1.000  C
  H89      1.0000 0.61030  0.80670  0.62040  Biso   1.000  H
  C115     1.0000 0.55841  0.80641  0.64388  Biso   1.000  C
  H90      1.0000 0.54250  0.82420  0.62780  Biso   1.000  H
  C116     1.0000 0.54140  0.79077  0.67183  Biso   1.000  C
  H91      1.0000 0.51390  0.79790  0.67480  Biso   1.000  H
  C117     1.0000 0.56464  0.76473  0.69543  Biso   1.000  C
  H92      1.0000 0.55300  0.75400  0.71450  Biso   1.000  H
  N26      1.0000 0.68432  0.73572  0.68703  Biso   1.000  N
  N27      1.0000 0.72541  0.73274  0.67949  Biso   1.000  N
  C118     1.0000 0.72811  0.75528  0.64871  Biso   1.000  C
  H93      1.0000 0.75210  0.75850  0.63770  Biso   1.000  H
  C119     1.0000 0.68870  0.77218  0.63723  Biso   1.000  C
  H94      1.0000 0.68170  0.78870  0.61720  Biso   1.000  H
  C120     1.0000 0.66164  0.76009  0.66091  Biso   1.000  C
  C121     1.0000 0.75510  0.70650  0.69674  Biso   1.000  C
  H95      1.0000 0.75220  0.70840  0.72100  Biso   1.000  H
  H96      1.0000 0.78230  0.71870  0.69340  Biso   1.000  H
  N28      1.0000 0.95350  0.47656  0.65890  Biso   1.000  N
  C122     1.0000 0.94634  0.45030  0.68615  Biso   1.000  C
  C123     1.0000 0.97592  0.42040  0.69953  Biso   1.000  C
  H97      1.0000 0.97100  0.40250  0.71810  Biso   1.000  H
  C124     1.0000 0.01265  0.41670  0.68566  Biso   1.000  C
  H98      1.0000 0.03290  0.39620  0.69480  Biso   1.000  H
  C125     1.0000 0.01981  0.44290  0.65841  Biso   1.000  C
  H99      1.0000 0.04490  0.44030  0.64890  Biso   1.000  H
  C126     1.0000 0.99023  0.47280  0.64503  Biso   1.000  C
  H100     1.0000 0.99510  0.49080  0.62640  Biso   1.000  H
  N29      1.0000 0.88111  0.48531  0.68194  Biso   1.000  N
  N30      1.0000 0.84403  0.48027  0.69659  Biso   1.000  N
  C127     1.0000 0.84989  0.44634  0.72121  Biso   1.000  C
  H101     1.0000 0.83010  0.43610  0.73490  Biso   1.000  H
  C128     1.0000 0.89060  0.43041  0.72179  Biso   1.000  C
  H102     1.0000 0.90280  0.40760  0.73590  Biso   1.000  H
  C129     1.0000 0.90989  0.45450  0.69752  Biso   1.000  C
  C130     1.0000 0.81030  0.50640  0.68693  Biso   1.000  C
  H103     1.0000 0.78590  0.49170  0.69420  Biso   1.000  H
  H104     1.0000 0.80640  0.50780  0.66210  Biso   1.000  H
  C131     1.0000 0.75379  0.65726  0.68630  Biso   1.000  C
  C132     1.0000 0.72097  0.64299  0.66397  Biso   1.000  C
  H105     1.0000 0.70020  0.66330  0.65570  Biso   1.000  H
  C133     1.0000 0.71852  0.59894  0.65382  Biso   1.000  C
  H106     1.0000 0.69610  0.58920  0.63860  Biso   1.000  H
  C134     1.0000 0.74888  0.56916  0.66599  Biso   1.000  C
  H107     1.0000 0.74720  0.53910  0.65900  Biso   1.000  H
  C135     1.0000 0.78170  0.58343  0.68831  Biso   1.000  C
  C136     1.0000 0.78416  0.62749  0.69847  Biso   1.000  C
  C137     1.0000 0.81698  0.64176  0.72079  Biso   1.000  C
  H108     1.0000 0.81870  0.67190  0.72770  Biso   1.000  H
  C138     1.0000 0.84734  0.61199  0.73296  Biso   1.000  C
  H109     1.0000 0.86980  0.62170  0.74820  Biso   1.000  H
  C139     1.0000 0.84489  0.56793  0.72280  Biso   1.000  C
  H110     1.0000 0.86560  0.54760  0.73110  Biso   1.000  H
  C140     1.0000 0.81207  0.55366  0.70048  Biso   1.000  C
  N31      1.0000 0.61944  0.03783  0.39241  Biso   1.000  N
  C141     1.0000 0.60336  0.03908  0.42302  Biso   1.000  C
  C142     1.0000 0.61374  0.07351  0.44542  Biso   1.000  C
  H111     1.0000 0.60270  0.07440  0.46630  Biso   1.000  H
  C143     1.0000 0.64020  0.10668  0.43721  Biso   1.000  C
  H112     1.0000 0.64730  0.13020  0.45250  Biso   1.000  H
  C144     1.0000 0.65628  0.10542  0.40660  Biso   1.000  C
  H113     1.0000 0.67440  0.12810  0.40100  Biso   1.000  H
  C145     1.0000 0.64590  0.07100  0.38420  Biso   1.000  C
  H114     1.0000 0.65690  0.07010  0.36330  Biso   1.000  H
  N32      1.0000 0.56870  0.97236  0.40501  Biso   1.000  N
  N33      1.0000 0.53809  0.94455  0.41610  Biso   1.000  N
  C146     1.0000 0.52765  0.96160  0.44704  Biso   1.000  C
  H115     1.0000 0.50800  0.94950  0.46010  Biso   1.000  H
  C147     1.0000 0.55181  0.99995  0.45507  Biso   1.000  C
  H116     1.0000 0.55110  0.01800  0.47440  Biso   1.000  H
  C148     1.0000 0.57718  0.00660  0.42909  Biso   1.000  C
  C149     1.0000 0.52490  0.90610  0.40053  Biso   1.000  C
  H117     1.0000 0.52510  0.90990  0.37600  Biso   1.000  H
  H118     1.0000 0.49610  0.90100  0.40470  Biso   1.000  H
  N34      1.0000 0.46627  0.59305  0.44928  Biso   1.000  N
  C150     1.0000 0.48131  0.57800  0.42027  Biso   1.000  C
  C151     1.0000 0.46715  0.53831  0.40566  Biso   1.000  C
  H119     1.0000 0.47740  0.52800  0.38580  Biso   1.000  H
  C152     1.0000 0.43796  0.51368  0.42006  Biso   1.000  C
  H120     1.0000 0.42830  0.48660  0.41010  Biso   1.000  H
  C153     1.0000 0.42293  0.52874  0.44907  Biso   1.000  C
  H121     1.0000 0.40300  0.51190  0.45890  Biso   1.000  H
  C154     1.0000 0.43708  0.56842  0.46368  Biso   1.000  C
  H122     1.0000 0.42680  0.57870  0.48350  Biso   1.000  H
  N35      1.0000 0.52262  0.64301  0.42433  Biso   1.000  N
  N36      1.0000 0.55246  0.66316  0.40628  Biso   1.000  N
  C155     1.0000 0.55777  0.63588  0.37823  Biso   1.000  C
  H123     1.0000 0.57590  0.64140  0.36190  Biso   1.000  H
  C156     1.0000 0.53122  0.59887  0.37895  Biso   1.000  C
  H124     1.0000 0.52850  0.57530  0.36310  Biso   1.000  H
  C157     1.0000 0.50950  0.60327  0.40744  Biso   1.000  C
  C158     1.0000 0.57140  0.70260  0.41535  Biso   1.000  C
  H125     1.0000 0.59930  0.70220  0.40840  Biso   1.000  H
  H126     1.0000 0.57410  0.70520  0.44010  Biso   1.000  H
  C159     1.0000 0.54967  0.86481  0.41140  Biso   1.000  C
  C160     1.0000 0.58309  0.86980  0.43564  Biso   1.000  C
  H127     1.0000 0.59090  0.89850  0.44370  Biso   1.000  H
  C161     1.0000 0.60506  0.83282  0.44800  Biso   1.000  C
  H128     1.0000 0.62790  0.83620  0.46460  Biso   1.000  H
  C162     1.0000 0.59361  0.79084  0.43614  Biso   1.000  C
  H129     1.0000 0.60860  0.76560  0.44460  Biso   1.000  H
  C163     1.0000 0.56019  0.78585  0.41190  Biso   1.000  C
  C164     1.0000 0.53822  0.82283  0.39953  Biso   1.000  C
  C165     1.0000 0.50480  0.81784  0.37530  Biso   1.000  C
  H130     1.0000 0.48980  0.84310  0.36680  Biso   1.000  H
  C166     1.0000 0.49335  0.77586  0.36343  Biso   1.000  C
  H131     1.0000 0.47050  0.77250  0.34690  Biso   1.000  H
  C167     1.0000 0.51531  0.73888  0.37579  Biso   1.000  C
  H132     1.0000 0.50750  0.71020  0.36770  Biso   1.000  H
  C168     1.0000 0.54874  0.74387  0.40003  Biso   1.000  C
  Co5      1.0000 0.73402  0.45861  0.38424  Biso   1.000  Co
  Co6      1.0000 0.85561  0.78609  0.27624  Biso   1.000  Co
  Co7      1.0000 0.90127  0.51652  0.63886  Biso   1.000  Co
  Co8      1.0000 0.48690  0.65825  0.46497  Biso   1.000  Co
  N37      1.0000 0.70039  0.45698  0.42669  Biso   1.000  N
  C169     1.0000 0.70749  0.49292  0.44826  Biso   1.000  C
  C170     1.0000 0.68962  0.49430  0.47805  Biso   1.000  C
  H133     1.0000 0.69450  0.51890  0.49280  Biso   1.000  H
  C171     1.0000 0.66463  0.45975  0.48628  Biso   1.000  C
  H134     1.0000 0.65240  0.46070  0.50660  Biso   1.000  H
  C172     1.0000 0.65753  0.42382  0.46471  Biso   1.000  C
  H135     1.0000 0.64050  0.40020  0.47030  Biso   1.000  H
  C173     1.0000 0.67541  0.42243  0.43491  Biso   1.000  C
  H136     1.0000 0.67060  0.39790  0.42020  Biso   1.000  H
  N38      1.0000 0.75508  0.51793  0.41137  Biso   1.000  N
  N39      1.0000 0.78351  0.55322  0.41058  Biso   1.000  N
  C174     1.0000 0.78011  0.58073  0.43888  Biso   1.000  C
  H137     1.0000 0.79550  0.60680  0.44460  Biso   1.000  H
  C175     1.0000 0.74957  0.56243  0.45716  Biso   1.000  C
  H138     1.0000 0.74100  0.57410  0.47720  Biso   1.000  H
  C176     1.0000 0.73410  0.52362  0.44016  Biso   1.000  C
  C177     1.0000 0.80740  0.56100  0.38500  Biso   1.000  C
  H139     1.0000 0.83370  0.57400  0.39480  Biso   1.000  H
  H140     1.0000 0.81350  0.53230  0.37470  Biso   1.000  H
  N40      1.0000 0.90137  0.79967  0.24181  Biso   1.000  N
  C178     1.0000 0.90144  0.76935  0.21571  Biso   1.000  C
  C179     1.0000 0.92797  0.77509  0.19140  Biso   1.000  C
  H141     1.0000 0.92800  0.75440  0.17360  Biso   1.000  H
  C180     1.0000 0.95444  0.81110  0.19321  Biso   1.000  C
  H142     1.0000 0.97260  0.81510  0.17660  Biso   1.000  H
  C181     1.0000 0.95437  0.84145  0.21931  Biso   1.000  C
  H143     1.0000 0.97250  0.86610  0.22050  Biso   1.000  H
  C182     1.0000 0.92784  0.83572  0.24362  Biso   1.000  C
  H144     1.0000 0.92780  0.85640  0.26150  Biso   1.000  H
  N41      1.0000 0.84675  0.73469  0.24032  Biso   1.000  N
  N42      1.0000 0.82021  0.69798  0.23307  Biso   1.000  N
  C183     1.0000 0.83110  0.67712  0.20359  Biso   1.000  C
  H145     1.0000 0.81840  0.65170  0.19310  Biso   1.000  H
  C184     1.0000 0.86439  0.70093  0.19262  Biso   1.000  C
  H146     1.0000 0.87780  0.69420  0.17350  Biso   1.000  H
  C185     1.0000 0.87406  0.73652  0.21532  Biso   1.000  C
  C186     1.0000 0.79420  0.68350  0.25553  Biso   1.000  C
  H147     1.0000 0.78350  0.70970  0.26660  Biso   1.000  H
  H148     1.0000 0.77060  0.66840  0.24280  Biso   1.000  H
  C187     1.0000 0.78788  0.59193  0.35737  Biso   1.000  C
  C188     1.0000 0.74729  0.60445  0.35799  Biso   1.000  C
  H149     1.0000 0.73220  0.59360  0.37510  Biso   1.000  H
  C189     1.0000 0.72875  0.63282  0.33351  Biso   1.000  C
  H150     1.0000 0.70100  0.64140  0.33390  Biso   1.000  H
  C190     1.0000 0.75080  0.64869  0.30840  Biso   1.000  C
  H151     1.0000 0.73810  0.66810  0.29170  Biso   1.000  H
  C191     1.0000 0.79139  0.63617  0.30778  Biso   1.000  C
  C192     1.0000 0.80993  0.60780  0.33227  Biso   1.000  C
  C193     1.0000 0.85052  0.59528  0.33165  Biso   1.000  C
  H152     1.0000 0.86320  0.57590  0.34840  Biso   1.000  H
  C194     1.0000 0.87257  0.61115  0.30654  Biso   1.000  C
  H153     1.0000 0.90030  0.60260  0.30610  Biso   1.000  H
  C195     1.0000 0.85404  0.63953  0.28206  Biso   1.000  C
  H154     1.0000 0.86910  0.65040  0.26490  Biso   1.000  H
  C196     1.0000 0.81345  0.65204  0.28268  Biso   1.000  C
  N43      1.0000 0.70913  0.39681  0.36370  Biso   1.000  N
  C197     1.0000 0.73202  0.35960  0.37416  Biso   1.000  C
  C198     1.0000 0.71736  0.31754  0.36523  Biso   1.000  C
  H155     1.0000 0.73300  0.29210  0.37240  Biso   1.000  H
  C199     1.0000 0.67982  0.31270  0.34584  Biso   1.000  C
  H156     1.0000 0.66980  0.28400  0.33970  Biso   1.000  H
  C200     1.0000 0.65694  0.34991  0.33537  Biso   1.000  C
  H157     1.0000 0.63130  0.34660  0.32210  Biso   1.000  H
  C201     1.0000 0.67159  0.39197  0.34430  Biso   1.000  C
  H158     1.0000 0.65590  0.41740  0.33720  Biso   1.000  H
  N44      1.0000 0.77526  0.41018  0.40643  Biso   1.000  N
  N45      1.0000 0.81467  0.41045  0.42503  Biso   1.000  N
  C202     1.0000 0.83138  0.36718  0.42369  Biso   1.000  C
  H159     1.0000 0.85740  0.35790  0.43400  Biso   1.000  H
  C203     1.0000 0.80230  0.34018  0.40426  Biso   1.000  C
  H160     1.0000 0.80550  0.30970  0.39930  Biso   1.000  H
  C204     1.0000 0.76762  0.36675  0.39359  Biso   1.000  C
  C205     1.0000 0.82780  0.44580  0.44475  Biso   1.000  C
  H161     1.0000 0.85790  0.44390  0.44990  Biso   1.000  H
  H162     1.0000 0.82160  0.47330  0.43170  Biso   1.000  H
  N46      1.0000 0.91979  0.57460  0.66575  Biso   1.000  N
  C206     1.0000 0.89617  0.61199  0.65728  Biso   1.000  C
  C207     1.0000 0.90794  0.65286  0.67117  Biso   1.000  C
  H163     1.0000 0.89180  0.67840  0.66540  Biso   1.000  H
  C208     1.0000 0.94334  0.65634  0.69352  Biso   1.000  C
  H164     1.0000 0.95140  0.68430  0.70300  Biso   1.000  H
  C209     1.0000 0.96696  0.61895  0.70198  Biso   1.000  C
  H165     1.0000 0.99120  0.62130  0.71730  Biso   1.000  H
  C210     1.0000 0.95519  0.57808  0.68810  Biso   1.000  C
  H166     1.0000 0.97130  0.55250  0.69390  Biso   1.000  H
  N47      1.0000 0.85203  0.56163  0.62424  Biso   1.000  N
  N48      1.0000 0.81307  0.56272  0.60494  Biso   1.000  N
  C211     1.0000 0.79824  0.60691  0.60507  Biso   1.000  C
  H167     1.0000 0.77280  0.61710  0.59410  Biso   1.000  H
  C212     1.0000 0.82804  0.63312  0.62445  Biso   1.000  C
  H168     1.0000 0.82610  0.66400  0.62870  Biso   1.000  H
  C213     1.0000 0.86128  0.60513  0.63629  Biso   1.000  C
  C214     1.0000 0.79680  0.52820  0.58535  Biso   1.000  C
  H169     1.0000 0.80350  0.50020  0.59750  Biso   1.000  H
  H170     1.0000 0.76660  0.53130  0.58250  Biso   1.000  H
  C215     1.0000 0.80898  0.44984  0.47810  Biso   1.000  C
  C216     1.0000 0.78283  0.41694  0.48727  Biso   1.000  C
  H171     1.0000 0.77630  0.39240  0.47280  Biso   1.000  H
  C217     1.0000 0.76622  0.41999  0.51758  Biso   1.000  C
  H172     1.0000 0.74830  0.39750  0.52390  Biso   1.000  H
  C218     1.0000 0.77576  0.45593  0.53871  Biso   1.000  C
  H173     1.0000 0.76440  0.45800  0.55940  Biso   1.000  H
  C219     1.0000 0.80191  0.48883  0.52954  Biso   1.000  C
  C220     1.0000 0.81852  0.48578  0.49923  Biso   1.000  C
  C221     1.0000 0.84467  0.51868  0.49005  Biso   1.000  C
  H174     1.0000 0.85600  0.51660  0.46930  Biso   1.000  H
  C222     1.0000 0.85422  0.55463  0.51118  Biso   1.000  C
  H175     1.0000 0.87210  0.57710  0.50490  Biso   1.000  H
  C223     1.0000 0.83761  0.55767  0.54149  Biso   1.000  C
  H176     1.0000 0.84410  0.58220  0.55590  Biso   1.000  H
  C224     1.0000 0.81146  0.52478  0.55067  Biso   1.000  C
  N49      1.0000 0.77133  0.46796  0.34460  Biso   1.000  N
  C225     1.0000 0.75363  0.49371  0.31807  Biso   1.000  C
  C226     1.0000 0.77637  0.50572  0.29230  Biso   1.000  C
  H177     1.0000 0.76430  0.52330  0.27420  Biso   1.000  H
  C227     1.0000 0.81681  0.49198  0.29305  Biso   1.000  C
  H178     1.0000 0.83240  0.50020  0.27540  Biso   1.000  H
  C228     1.0000 0.83451  0.46623  0.31957  Biso   1.000  C
  H179     1.0000 0.86220  0.45680  0.32010  Biso   1.000  H
  C229     1.0000 0.81177  0.45422  0.34534  Biso   1.000  C
  H180     1.0000 0.82390  0.43660  0.36350  Biso   1.000  H
  N50      1.0000 0.69450  0.49249  0.34727  Biso   1.000  N
  N51      1.0000 0.65238  0.50370  0.34116  Biso   1.000  N
  C230     1.0000 0.64514  0.52170  0.30829  Biso   1.000  C
  H181     1.0000 0.61960  0.53200  0.29770  Biso   1.000  H
  C231     1.0000 0.68279  0.52160  0.29408  Biso   1.000  C
  H182     1.0000 0.68690  0.53180  0.27230  Biso   1.000  H
  C232     1.0000 0.71330  0.50356  0.31818  Biso   1.000  C
  C233     1.0000 0.62650  0.49950  0.36520  Biso   1.000  C
  H183     1.0000 0.59810  0.49740  0.35390  Biso   1.000  H
  H184     1.0000 0.63270  0.47140  0.37740  Biso   1.000  H
  N52      1.0000 0.44748  0.66304  0.50491  Biso   1.000  N
  C234     1.0000 0.46267  0.64219  0.53467  Biso   1.000  C
  C235     1.0000 0.44108  0.64443  0.56251  Biso   1.000  C
  H185     1.0000 0.45150  0.63020  0.58280  Biso   1.000  H
  C236     1.0000 0.40431  0.66751  0.56059  Biso   1.000  C
  H186     1.0000 0.38960  0.66900  0.57960  Biso   1.000  H
  C237     1.0000 0.38913  0.68836  0.53084  Biso   1.000  C
  H187     1.0000 0.36400  0.70410  0.52950  Biso   1.000  H
  C238     1.0000 0.41071  0.68612  0.50300  Biso   1.000  C
  H188     1.0000 0.40030  0.70040  0.48270  Biso   1.000  H
  N53      1.0000 0.52236  0.63036  0.50755  Biso   1.000  N
  N54      1.0000 0.56159  0.61080  0.51517  Biso   1.000  N
  C239     1.0000 0.56366  0.59232  0.54790  Biso   1.000  C
  H189     1.0000 0.58640  0.57720  0.55940  Biso   1.000  H
  C240     1.0000 0.52570  0.60046  0.56052  Biso   1.000  C
  H190     1.0000 0.51860  0.59170  0.58190  Biso   1.000  H
  C241     1.0000 0.50018  0.62397  0.53558  Biso   1.000  C
  C242     1.0000 0.59025  0.61010  0.49292  Biso   1.000  C
  H191     1.0000 0.58790  0.63790  0.47970  Biso   1.000  H
  H192     1.0000 0.61780  0.60980  0.50580  Biso   1.000  H
  C243     1.0000 0.62819  0.53697  0.39076  Biso   1.000  C
  C244     1.0000 0.65357  0.57262  0.38578  Biso   1.000  C
  H193     1.0000 0.66870  0.57300  0.36690  Biso   1.000  H
  C245     1.0000 0.65683  0.60774  0.40837  Biso   1.000  C
  H194     1.0000 0.67420  0.63210  0.40500  Biso   1.000  H
  C246     1.0000 0.63470  0.60720  0.43594  Biso   1.000  C
  H195     1.0000 0.63690  0.63120  0.45140  Biso   1.000  H
  C247     1.0000 0.60932  0.57154  0.44092  Biso   1.000  C
  C248     1.0000 0.60606  0.53642  0.41833  Biso   1.000  C
  C249     1.0000 0.58068  0.50076  0.42330  Biso   1.000  C
  H196     1.0000 0.57850  0.47680  0.40790  Biso   1.000  H
  C250     1.0000 0.55855  0.50022  0.45087  Biso   1.000  C
  H197     1.0000 0.54120  0.47580  0.45430  Biso   1.000  H
  C251     1.0000 0.56180  0.53533  0.47346  Biso   1.000  C
  H198     1.0000 0.54670  0.53500  0.49230  Biso   1.000  H
  C252     1.0000 0.58719  0.57099  0.46848  Biso   1.000  C
  N55      1.0000 0.81147  0.82855  0.24965  Biso   1.000  N
  C253     1.0000 0.81365  0.87277  0.25938  Biso   1.000  C
  C254     1.0000 0.78433  0.90269  0.24550  Biso   1.000  C
  H199     1.0000 0.78580  0.93290  0.25220  Biso   1.000  H
  C255     1.0000 0.75284  0.88838  0.22190  Biso   1.000  C
  H200     1.0000 0.73280  0.90880  0.21240  Biso   1.000  H
  C256     1.0000 0.75066  0.84416  0.21217  Biso   1.000  C
  H201     1.0000 0.72910  0.83440  0.19600  Biso   1.000  H
  C257     1.0000 0.77997  0.81424  0.22604  Biso   1.000  C
  H202     1.0000 0.77850  0.78400  0.21940  Biso   1.000  H
  N56      1.0000 0.86963  0.84978  0.29810  Biso   1.000  N
  N57      1.0000 0.90151  0.86951  0.32001  Biso   1.000  N
  C258     1.0000 0.89637  0.91620  0.31820  Biso   1.000  C
  H203     1.0000 0.91340  0.93760  0.33030  Biso   1.000  H
  C259     1.0000 0.86131  0.92532  0.29516  Biso   1.000  C
  H204     1.0000 0.85080  0.95390  0.28910  Biso   1.000  H
  C260     1.0000 0.84478  0.88427  0.28274  Biso   1.000  C
  C261     1.0000 0.92990  0.84530  0.34073  Biso   1.000  C
  H205     1.0000 0.93690  0.81830  0.32860  Biso   1.000  H
  H206     1.0000 0.95520  0.86310  0.34520  Biso   1.000  H
  N58      1.0000 0.05811  0.81080  0.57066  Biso   1.000  N
  C262     1.0000 0.05779  0.76476  0.56958  Biso   1.000  C
  C263     1.0000 0.08642  0.74076  0.59045  Biso   1.000  C
  H207     1.0000 0.08620  0.70930  0.58970  Biso   1.000  H
  C264     1.0000 0.11536  0.76279  0.61240  Biso   1.000  C
  H208     1.0000 0.13490  0.74640  0.62670  Biso   1.000  H
  C265     1.0000 0.11568  0.80883  0.61348  Biso   1.000  C
  H209     1.0000 0.13550  0.82390  0.62850  Biso   1.000  H
  C266     1.0000 0.08706  0.83283  0.59260  Biso   1.000  C
  H210     1.0000 0.08730  0.86430  0.59330  Biso   1.000  H
  N59      1.0000 0.99900  0.77340  0.52910  Biso   1.000  N
  N60      1.0000 0.97109  0.74574  0.50908  Biso   1.000  N
  C267     1.0000 0.98294  0.70103  0.51554  Biso   1.000  C
  H211     1.0000 0.96960  0.67560  0.50560  Biso   1.000  H
  C268     1.0000 0.01817  0.70106  0.53956  Biso   1.000  C
  H212     1.0000 0.03260  0.67560  0.54850  Biso   1.000  H
  C269     1.0000 0.02810  0.74579  0.54794  Biso   1.000  C
  C270     1.0000 0.94090  0.76110  0.48616  Biso   1.000  C
  H213     1.0000 0.91860  0.73880  0.48360  Biso   1.000  H
  H214     1.0000 0.92950  0.78840  0.49520  Biso   1.000  H
  C271     1.0000 0.91580  0.83159  0.37430  Biso   1.000  C
  C272     1.0000 0.87754  0.84539  0.38181  Biso   1.000  C
  H215     1.0000 0.86030  0.86220  0.36590  Biso   1.000  H
  C273     1.0000 0.86447  0.83457  0.41259  Biso   1.000  C
  H216     1.0000 0.83830  0.84400  0.41770  Biso   1.000  H
  C274     1.0000 0.88966  0.80995  0.43585  Biso   1.000  C
  H217     1.0000 0.88070  0.80260  0.45690  Biso   1.000  H
  C275     1.0000 0.92791  0.79615  0.42833  Biso   1.000  C
  C276     1.0000 0.94098  0.80697  0.39756  Biso   1.000  C
  C277     1.0000 0.97924  0.79317  0.39005  Biso   1.000  C
  H218     1.0000 0.98820  0.80060  0.36900  Biso   1.000  H
  C278     1.0000 0.00442  0.76855  0.41331  Biso   1.000  C
  H219     1.0000 0.03060  0.75910  0.40820  Biso   1.000  H
  C279     1.0000 0.99135  0.75773  0.44408  Biso   1.000  C
  H220     1.0000 0.00860  0.74090  0.46000  Biso   1.000  H
  C280     1.0000 0.95310  0.77153  0.45160  Biso   1.000  C
  N61      1.0000 0.89512  0.74567  0.30892  Biso   1.000  N
  C281     1.0000 0.87811  0.73002  0.33687  Biso   1.000  C
  C282     1.0000 0.90134  0.70398  0.36047  Biso   1.000  C
  H221     1.0000 0.88970  0.69330  0.37960  Biso   1.000  H
  C283     1.0000 0.94159  0.69359  0.35612  Biso   1.000  C
  H222     1.0000 0.95750  0.67580  0.37220  Biso   1.000  H
  C284     1.0000 0.95860  0.70923  0.32817  Biso   1.000  C
  H223     1.0000 0.98610  0.70210  0.32520  Biso   1.000  H
  C285     1.0000 0.93536  0.73527  0.30457  Biso   1.000  C
  H224     1.0000 0.94700  0.74600  0.28550  Biso   1.000  H
  N62      1.0000 0.81568  0.76428  0.31297  Biso   1.000  N
  N63      1.0000 0.77459  0.76726  0.32051  Biso   1.000  N
  C286     1.0000 0.77189  0.74472  0.35129  Biso   1.000  C
  H225     1.0000 0.74790  0.74150  0.36230  Biso   1.000  H
  C287     1.0000 0.81130  0.72782  0.36277  Biso   1.000  C
  H226     1.0000 0.81830  0.71130  0.38280  Biso   1.000  H
  C288     1.0000 0.83836  0.73991  0.33909  Biso   1.000  C
  C289     1.0000 0.74490  0.79350  0.30326  Biso   1.000  C
  H227     1.0000 0.74780  0.79160  0.27900  Biso   1.000  H
  H228     1.0000 0.71770  0.78130  0.30660  Biso   1.000  H
  N64      1.0000 0.54650  0.02344  0.34110  Biso   1.000  N
  C290     1.0000 0.55366  0.04970  0.31385  Biso   1.000  C
  C291     1.0000 0.52408  0.07960  0.30047  Biso   1.000  C
  H229     1.0000 0.52900  0.09750  0.28190  Biso   1.000  H
  C292     1.0000 0.48735  0.08330  0.31434  Biso   1.000  C
  H230     1.0000 0.46710  0.10380  0.30520  Biso   1.000  H
  C293     1.0000 0.48019  0.05710  0.34159  Biso   1.000  C
  H231     1.0000 0.45510  0.05970  0.35110  Biso   1.000  H
  C294     1.0000 0.50977  0.02720  0.35497  Biso   1.000  C
  H232     1.0000 0.50490  0.00920  0.37360  Biso   1.000  H
  N65      1.0000 0.61889  0.01469  0.31806  Biso   1.000  N
  N66      1.0000 0.65597  0.01973  0.30341  Biso   1.000  N
  C295     1.0000 0.65011  0.05366  0.27879  Biso   1.000  C
  H233     1.0000 0.66990  0.06390  0.26510  Biso   1.000  H
  C296     1.0000 0.60940  0.06959  0.27821  Biso   1.000  C
  H234     1.0000 0.59720  0.09240  0.26410  Biso   1.000  H
  C297     1.0000 0.59011  0.04550  0.30248  Biso   1.000  C
  C298     1.0000 0.68970  0.99360  0.31307  Biso   1.000  C
  H235     1.0000 0.71410  0.00830  0.30580  Biso   1.000  H
  H236     1.0000 0.69360  0.99220  0.33790  Biso   1.000  H
  C299     1.0000 0.74621  0.84274  0.31370  Biso   1.000  C
  C300     1.0000 0.77903  0.85701  0.33603  Biso   1.000  C
  H237     1.0000 0.79980  0.83670  0.34430  Biso   1.000  H
  C301     1.0000 0.78148  0.90106  0.34618  Biso   1.000  C
  H238     1.0000 0.80390  0.91080  0.36140  Biso   1.000  H
  C302     1.0000 0.75112  0.93084  0.33401  Biso   1.000  C
  H239     1.0000 0.75280  0.96090  0.34100  Biso   1.000  H
  C303     1.0000 0.71830  0.91657  0.31169  Biso   1.000  C
  C304     1.0000 0.71584  0.87251  0.30153  Biso   1.000  C
  C305     1.0000 0.68302  0.85824  0.27921  Biso   1.000  C
  H240     1.0000 0.68130  0.82810  0.27230  Biso   1.000  H
  C306     1.0000 0.65266  0.88801  0.26704  Biso   1.000  C
  H241     1.0000 0.63020  0.87830  0.25180  Biso   1.000  H
  C307     1.0000 0.65511  0.93207  0.27720  Biso   1.000  C
  H242     1.0000 0.63440  0.95240  0.26890  Biso   1.000  H
  C308     1.0000 0.68793  0.94634  0.29952  Biso   1.000  C
  N67      1.0000 0.88056  0.46217  0.60759  Biso   1.000  N
  C309     1.0000 0.89664  0.46092  0.57698  Biso   1.000  C
  C310     1.0000 0.88626  0.42649  0.55458  Biso   1.000  C
  H243     1.0000 0.89730  0.42560  0.53370  Biso   1.000  H
  C311     1.0000 0.85980  0.39332  0.56279  Biso   1.000  C
  H244     1.0000 0.85270  0.36980  0.54750  Biso   1.000  H
  C312     1.0000 0.84372  0.39458  0.59340  Biso   1.000  C
  H245     1.0000 0.82560  0.37190  0.59900  Biso   1.000  H
  C313     1.0000 0.85410  0.42900  0.61580  Biso   1.000  C
  H246     1.0000 0.84310  0.42990  0.63670  Biso   1.000  H
  N68      1.0000 0.93130  0.52764  0.59499  Biso   1.000  N
  N69      1.0000 0.96191  0.55545  0.58390  Biso   1.000  N
  C314     1.0000 0.97235  0.53840  0.55296  Biso   1.000  C
  H247     1.0000 0.99200  0.55050  0.53990  Biso   1.000  H
  C315     1.0000 0.94819  0.50005  0.54493  Biso   1.000  C
  H248     1.0000 0.94890  0.48200  0.52560  Biso   1.000  H
  C316     1.0000 0.92282  0.49340  0.57091  Biso   1.000  C
  C317     1.0000 0.97510  0.59390  0.59947  Biso   1.000  C
  H249     1.0000 0.97490  0.59010  0.62400  Biso   1.000  H
  H250     1.0000 0.00390  0.59900  0.59530  Biso   1.000  H
  N70      1.0000 0.03373  0.90695  0.55072  Biso   1.000  N
  C318     1.0000 0.01869  0.92200  0.57973  Biso   1.000  C
  C319     1.0000 0.03285  0.96169  0.59434  Biso   1.000  C
  H251     1.0000 0.02260  0.97200  0.61420  Biso   1.000  H
  C320     1.0000 0.06204  0.98632  0.57994  Biso   1.000  C
  H252     1.0000 0.07170  0.01340  0.58990  Biso   1.000  H
  C321     1.0000 0.07707  0.97126  0.55093  Biso   1.000  C
  H253     1.0000 0.09700  0.98810  0.54110  Biso   1.000  H
  C322     1.0000 0.06292  0.93158  0.53632  Biso   1.000  C
  H254     1.0000 0.07320  0.92130  0.51650  Biso   1.000  H
  N71      1.0000 0.97738  0.85699  0.57567  Biso   1.000  N
  N72      1.0000 0.94754  0.83684  0.59372  Biso   1.000  N
  C323     1.0000 0.94223  0.86412  0.62177  Biso   1.000  C
  H255     1.0000 0.92410  0.85860  0.63810  Biso   1.000  H
  C324     1.0000 0.96878  0.90113  0.62105  Biso   1.000  C
  H256     1.0000 0.97150  0.92470  0.63690  Biso   1.000  H
  C325     1.0000 0.99050  0.89673  0.59256  Biso   1.000  C
  C326     1.0000 0.92860  0.79740  0.58465  Biso   1.000  C
  H257     1.0000 0.90070  0.79780  0.59160  Biso   1.000  H
  H258     1.0000 0.92590  0.79480  0.55990  Biso   1.000  H
  C327     1.0000 0.95033  0.63519  0.58860  Biso   1.000  C
  C328     1.0000 0.91691  0.63020  0.56436  Biso   1.000  C
  H259     1.0000 0.90910  0.60150  0.55630  Biso   1.000  H
  C329     1.0000 0.89494  0.66718  0.55200  Biso   1.000  C
  H260     1.0000 0.87210  0.66380  0.53540  Biso   1.000  H
  C330     1.0000 0.90639  0.70916  0.56386  Biso   1.000  C
  H261     1.0000 0.89140  0.73440  0.55540  Biso   1.000  H
  C331     1.0000 0.93981  0.71415  0.58810  Biso   1.000  C
  C332     1.0000 0.96178  0.67717  0.60047  Biso   1.000  C
  C333     1.0000 0.99520  0.68216  0.62470  Biso   1.000  C
  H262     1.0000 0.01020  0.65690  0.63320  Biso   1.000  H
  C334     1.0000 0.00665  0.72414  0.63657  Biso   1.000  C
  H263     1.0000 0.02950  0.72750  0.65310  Biso   1.000  H
  C335     1.0000 0.98469  0.76112  0.62421  Biso   1.000  C
  H264     1.0000 0.99250  0.78980  0.63230  Biso   1.000  H
  C336     1.0000 0.95126  0.75613  0.59997  Biso   1.000  C
  Co9      1.0000 0.26598  0.54139  0.61576  Biso   1.000  Co
  Co10     1.0000 0.14439  0.21391  0.72376  Biso   1.000  Co
  Co11     1.0000 0.09873  0.48348  0.36114  Biso   1.000  Co
  Co12     1.0000 0.51310  0.34175  0.53503  Biso   1.000  Co
  N73      1.0000 0.29961  0.54302  0.57331  Biso   1.000  N
  C337     1.0000 0.29251  0.50708  0.55174  Biso   1.000  C
  C338     1.0000 0.31038  0.50570  0.52195  Biso   1.000  C
  H265     1.0000 0.30550  0.48110  0.50720  Biso   1.000  H
  C339     1.0000 0.33537  0.54025  0.51372  Biso   1.000  C
  H266     1.0000 0.34760  0.53930  0.49340  Biso   1.000  H
  C340     1.0000 0.34247  0.57618  0.53529  Biso   1.000  C
  H267     1.0000 0.35950  0.59980  0.52970  Biso   1.000  H
  C341     1.0000 0.32459  0.57757  0.56509  Biso   1.000  C
  H268     1.0000 0.32940  0.60210  0.57980  Biso   1.000  H
  N74      1.0000 0.24492  0.48207  0.58863  Biso   1.000  N
  N75      1.0000 0.21649  0.44678  0.58942  Biso   1.000  N
  C342     1.0000 0.21989  0.41927  0.56112  Biso   1.000  C
  H269     1.0000 0.20450  0.39320  0.55540  Biso   1.000  H
  C343     1.0000 0.25043  0.43757  0.54284  Biso   1.000  C
  H270     1.0000 0.25900  0.42590  0.52280  Biso   1.000  H
  C344     1.0000 0.26590  0.47638  0.55984  Biso   1.000  C
  C345     1.0000 0.19260  0.43900  0.61500  Biso   1.000  C
  H271     1.0000 0.16630  0.42600  0.60520  Biso   1.000  H
  H272     1.0000 0.18650  0.46770  0.62530  Biso   1.000  H
  N76      1.0000 0.09863  0.20033  0.75819  Biso   1.000  N
  C346     1.0000 0.09856  0.23065  0.78429  Biso   1.000  C
  C347     1.0000 0.07203  0.22491  0.80860  Biso   1.000  C
  H273     1.0000 0.07200  0.24560  0.82640  Biso   1.000  H
  C348     1.0000 0.04556  0.18890  0.80679  Biso   1.000  C
  H274     1.0000 0.02740  0.18490  0.82340  Biso   1.000  H
  C349     1.0000 0.04563  0.15855  0.78069  Biso   1.000  C
  H275     1.0000 0.02750  0.13390  0.77950  Biso   1.000  H
  C350     1.0000 0.07216  0.16428  0.75638  Biso   1.000  C
  H276     1.0000 0.07220  0.14360  0.73850  Biso   1.000  H
  N77      1.0000 0.15325  0.26531  0.75968  Biso   1.000  N
  N78      1.0000 0.17979  0.30202  0.76693  Biso   1.000  N
  C351     1.0000 0.16890  0.32288  0.79641  Biso   1.000  C
  H277     1.0000 0.18160  0.34830  0.80690  Biso   1.000  H
  C352     1.0000 0.13561  0.29907  0.80738  Biso   1.000  C
  H278     1.0000 0.12220  0.30580  0.82650  Biso   1.000  H
  C353     1.0000 0.12594  0.26348  0.78468  Biso   1.000  C
  C354     1.0000 0.20580  0.31650  0.74447  Biso   1.000  C
  H279     1.0000 0.21650  0.29030  0.73340  Biso   1.000  H
  H280     1.0000 0.22940  0.33160  0.75720  Biso   1.000  H
  C355     1.0000 0.21212  0.40807  0.64263  Biso   1.000  C
  C356     1.0000 0.25271  0.39555  0.64201  Biso   1.000  C
  H281     1.0000 0.26780  0.40640  0.62490  Biso   1.000  H
  C357     1.0000 0.27125  0.36718  0.66649  Biso   1.000  C
  H282     1.0000 0.29900  0.35860  0.66610  Biso   1.000  H
  C358     1.0000 0.24920  0.35131  0.69160  Biso   1.000  C
  H283     1.0000 0.26190  0.33190  0.70830  Biso   1.000  H
  C359     1.0000 0.20861  0.36383  0.69222  Biso   1.000  C
  C360     1.0000 0.19007  0.39220  0.66773  Biso   1.000  C
  C361     1.0000 0.14948  0.40472  0.66835  Biso   1.000  C
  H284     1.0000 0.13680  0.42410  0.65160  Biso   1.000  H
  C362     1.0000 0.12743  0.38885  0.69346  Biso   1.000  C
  H285     1.0000 0.09970  0.39740  0.69390  Biso   1.000  H
  C363     1.0000 0.14596  0.36047  0.71794  Biso   1.000  C
  H286     1.0000 0.13090  0.34960  0.73510  Biso   1.000  H
  C364     1.0000 0.18655  0.34796  0.71732  Biso   1.000  C
  N79      1.0000 0.29087  0.60319  0.63630  Biso   1.000  N
  C365     1.0000 0.26798  0.64040  0.62584  Biso   1.000  C
  C366     1.0000 0.28264  0.68246  0.63477  Biso   1.000  C
  H287     1.0000 0.26700  0.70790  0.62760  Biso   1.000  H
  C367     1.0000 0.32018  0.68730  0.65416  Biso   1.000  C
  H288     1.0000 0.33020  0.71600  0.66030  Biso   1.000  H
  C368     1.0000 0.34306  0.65009  0.66463  Biso   1.000  C
  H289     1.0000 0.36870  0.65340  0.67790  Biso   1.000  H
  C369     1.0000 0.32841  0.60803  0.65570  Biso   1.000  C
  H290     1.0000 0.34410  0.58260  0.66280  Biso   1.000  H
  N80      1.0000 0.22474  0.58982  0.59357  Biso   1.000  N
  N81      1.0000 0.18533  0.58955  0.57497  Biso   1.000  N
  C370     1.0000 0.16862  0.63282  0.57631  Biso   1.000  C
  H291     1.0000 0.14260  0.64210  0.56600  Biso   1.000  H
  C371     1.0000 0.19770  0.65982  0.59574  Biso   1.000  C
  H292     1.0000 0.19450  0.69030  0.60070  Biso   1.000  H
  C372     1.0000 0.23238  0.63325  0.60641  Biso   1.000  C
  C373     1.0000 0.17220  0.55420  0.55525  Biso   1.000  C
  H293     1.0000 0.14210  0.55610  0.55010  Biso   1.000  H
  H294     1.0000 0.17840  0.52670  0.56830  Biso   1.000  H
  N82      1.0000 0.08021  0.42540  0.33425  Biso   1.000  N
  C374     1.0000 0.10383  0.38801  0.34272  Biso   1.000  C
  C375     1.0000 0.09206  0.34714  0.32883  Biso   1.000  C
  H295     1.0000 0.10820  0.32160  0.33460  Biso   1.000  H
  C376     1.0000 0.05666  0.34366  0.30648  Biso   1.000  C
  H296     1.0000 0.04860  0.31570  0.29700  Biso   1.000  H
  C377     1.0000 0.03304  0.38105  0.29802  Biso   1.000  C
  H297     1.0000 0.00880  0.37870  0.28270  Biso   1.000  H
  C378     1.0000 0.04481  0.42192  0.31190  Biso   1.000  C
  H298     1.0000 0.02870  0.44750  0.30610  Biso   1.000  H
  N83      1.0000 0.14797  0.43837  0.37576  Biso   1.000  N
  N84      1.0000 0.18693  0.43728  0.39506  Biso   1.000  N
  C379     1.0000 0.20176  0.39309  0.39493  Biso   1.000  C
  H299     1.0000 0.22720  0.38290  0.40590  Biso   1.000  H
  C380     1.0000 0.17196  0.36688  0.37555  Biso   1.000  C
  H300     1.0000 0.17390  0.33600  0.37130  Biso   1.000  H
  C381     1.0000 0.13872  0.39487  0.36371  Biso   1.000  C
  C382     1.0000 0.20320  0.47180  0.41465  Biso   1.000  C
  H301     1.0000 0.19650  0.49980  0.40250  Biso   1.000  H
  H302     1.0000 0.23340  0.46870  0.41750  Biso   1.000  H
  C383     1.0000 0.19102  0.55016  0.52190  Biso   1.000  C
  C384     1.0000 0.21717  0.58306  0.51273  Biso   1.000  C
  H303     1.0000 0.22370  0.60760  0.52720  Biso   1.000  H
  C385     1.0000 0.23378  0.58001  0.48242  Biso   1.000  C
  H304     1.0000 0.25170  0.60250  0.47610  Biso   1.000  H
  C386     1.0000 0.22424  0.54407  0.46129  Biso   1.000  C
  H305     1.0000 0.23560  0.54200  0.44060  Biso   1.000  H
  C387     1.0000 0.19809  0.51117  0.47046  Biso   1.000  C
  C388     1.0000 0.18148  0.51422  0.50077  Biso   1.000  C
  C389     1.0000 0.15533  0.48132  0.50995  Biso   1.000  C
  H306     1.0000 0.14400  0.48340  0.53070  Biso   1.000  H
  C390     1.0000 0.14578  0.44537  0.48882  Biso   1.000  C
  H307     1.0000 0.12790  0.42290  0.49510  Biso   1.000  H
  C391     1.0000 0.16239  0.44233  0.45851  Biso   1.000  C
  H308     1.0000 0.15590  0.41780  0.44410  Biso   1.000  H
  C392     1.0000 0.18854  0.47522  0.44933  Biso   1.000  C
  N85      1.0000 0.22867  0.53204  0.65540  Biso   1.000  N
  C393     1.0000 0.24637  0.50629  0.68193  Biso   1.000  C
  C394     1.0000 0.22363  0.49428  0.70770  Biso   1.000  C
  H309     1.0000 0.23570  0.47670  0.72580  Biso   1.000  H
  C395     1.0000 0.18319  0.50802  0.70695  Biso   1.000  C
  H310     1.0000 0.16760  0.49980  0.72460  Biso   1.000  H
  C396     1.0000 0.16549  0.53377  0.68043  Biso   1.000  C
  H311     1.0000 0.13780  0.54320  0.67990  Biso   1.000  H
  C397     1.0000 0.18823  0.54578  0.65466  Biso   1.000  C
  H312     1.0000 0.17610  0.56340  0.63650  Biso   1.000  H
  N86      1.0000 0.30550  0.50751  0.65273  Biso   1.000  N
  N87      1.0000 0.34762  0.49630  0.65884  Biso   1.000  N
  C398     1.0000 0.35486  0.47830  0.69171  Biso   1.000  C
  H313     1.0000 0.38040  0.46800  0.70230  Biso   1.000  H
  C399     1.0000 0.31721  0.47840  0.70592  Biso   1.000  C
  H314     1.0000 0.31310  0.46820  0.72770  Biso   1.000  H
  C400     1.0000 0.28670  0.49644  0.68182  Biso   1.000  C
  C401     1.0000 0.37350  0.50050  0.63480  Biso   1.000  C
  H315     1.0000 0.40190  0.50260  0.64610  Biso   1.000  H
  H316     1.0000 0.36730  0.52860  0.62260  Biso   1.000  H
  N88      1.0000 0.55252  0.33696  0.49509  Biso   1.000  N
  C402     1.0000 0.53733  0.35781  0.46533  Biso   1.000  C
  C403     1.0000 0.55892  0.35557  0.43749  Biso   1.000  C
  H317     1.0000 0.54850  0.36980  0.41720  Biso   1.000  H
  C404     1.0000 0.59569  0.33249  0.43941  Biso   1.000  C
  H318     1.0000 0.61040  0.33100  0.42040  Biso   1.000  H
  C405     1.0000 0.61087  0.31164  0.46916  Biso   1.000  C
  H319     1.0000 0.63600  0.29590  0.47050  Biso   1.000  H
  C406     1.0000 0.58929  0.31388  0.49700  Biso   1.000  C
  H320     1.0000 0.59970  0.29960  0.51730  Biso   1.000  H
  N89      1.0000 0.47764  0.36964  0.49245  Biso   1.000  N
  N90      1.0000 0.43841  0.38920  0.48483  Biso   1.000  N
  C407     1.0000 0.43634  0.40768  0.45210  Biso   1.000  C
  H321     1.0000 0.41360  0.42280  0.44060  Biso   1.000  H
  C408     1.0000 0.47430  0.39954  0.43948  Biso   1.000  C
  H322     1.0000 0.48140  0.40830  0.41810  Biso   1.000  H
  C409     1.0000 0.49982  0.37603  0.46442  Biso   1.000  C
  C410     1.0000 0.40975  0.38990  0.50708  Biso   1.000  C
  H323     1.0000 0.41210  0.36210  0.52030  Biso   1.000  H
  H324     1.0000 0.38220  0.39020  0.49420  Biso   1.000  H
  C411     1.0000 0.37181  0.46303  0.60924  Biso   1.000  C
  C412     1.0000 0.34643  0.42738  0.61422  Biso   1.000  C
  H325     1.0000 0.33130  0.42700  0.63310  Biso   1.000  H
  C413     1.0000 0.34317  0.39226  0.59163  Biso   1.000  C
  H326     1.0000 0.32580  0.36790  0.59500  Biso   1.000  H
  C414     1.0000 0.36530  0.39280  0.56406  Biso   1.000  C
  H327     1.0000 0.36310  0.36880  0.54860  Biso   1.000  H
  C415     1.0000 0.39068  0.42846  0.55908  Biso   1.000  C
  C416     1.0000 0.39394  0.46358  0.58167  Biso   1.000  C
  C417     1.0000 0.41932  0.49924  0.57670  Biso   1.000  C
  H328     1.0000 0.42150  0.52320  0.59210  Biso   1.000  H
  C418     1.0000 0.44145  0.49978  0.54913  Biso   1.000  C
  H329     1.0000 0.45880  0.52420  0.54570  Biso   1.000  H
  C419     1.0000 0.43820  0.46467  0.52654  Biso   1.000  C
  H330     1.0000 0.45330  0.46500  0.50770  Biso   1.000  H
  C420     1.0000 0.41281  0.42901  0.53152  Biso   1.000  C
  N91      1.0000 0.18853  0.17145  0.75035  Biso   1.000  N
  C421     1.0000 0.18635  0.12723  0.74062  Biso   1.000  C
  C422     1.0000 0.21567  0.09731  0.75450  Biso   1.000  C
  H331     1.0000 0.21420  0.06710  0.74780  Biso   1.000  H
  C423     1.0000 0.24716  0.11162  0.77810  Biso   1.000  C
  H332     1.0000 0.26720  0.09120  0.78760  Biso   1.000  H
  C424     1.0000 0.24934  0.15584  0.78783  Biso   1.000  C
  H333     1.0000 0.27090  0.16560  0.80400  Biso   1.000  H
  C425     1.0000 0.22003  0.18576  0.77396  Biso   1.000  C
  H334     1.0000 0.22150  0.21600  0.78060  Biso   1.000  H
  N92      1.0000 0.13037  0.15022  0.70190  Biso   1.000  N
  N93      1.0000 0.09849  0.13049  0.67999  Biso   1.000  N
  C426     1.0000 0.10363  0.08380  0.68180  Biso   1.000  C
  H335     1.0000 0.08660  0.06240  0.66970  Biso   1.000  H
  C427     1.0000 0.13869  0.07468  0.70484  Biso   1.000  C
  H336     1.0000 0.14920  0.04610  0.71090  Biso   1.000  H
  C428     1.0000 0.15522  0.11573  0.71726  Biso   1.000  C
  C429     1.0000 0.07010  0.15470  0.65927  Biso   1.000  C
  H337     1.0000 0.06310  0.18170  0.67140  Biso   1.000  H
  H338     1.0000 0.04480  0.13690  0.65480  Biso   1.000  H
  N94      1.0000 0.94189  0.18920  0.42934  Biso   1.000  N
  C430     1.0000 0.94221  0.23524  0.43042  Biso   1.000  C
  C431     1.0000 0.91358  0.25924  0.40955  Biso   1.000  C
  H339     1.0000 0.91380  0.29070  0.41030  Biso   1.000  H
  C432     1.0000 0.88464  0.23721  0.38760  Biso   1.000  C
  H340     1.0000 0.86510  0.25360  0.37330  Biso   1.000  H
  C433     1.0000 0.88432  0.19117  0.38652  Biso   1.000  C
  H341     1.0000 0.86450  0.17610  0.37150  Biso   1.000  H
  C434     1.0000 0.91294  0.16717  0.40740  Biso   1.000  C
  H342     1.0000 0.91270  0.13570  0.40670  Biso   1.000  H
  N95      1.0000 0.00100  0.22660  0.47090  Biso   1.000  N
  N96      1.0000 0.02891  0.25426  0.49092  Biso   1.000  N
  C435     1.0000 0.01706  0.29897  0.48446  Biso   1.000  C
  H343     1.0000 0.03040  0.32440  0.49440  Biso   1.000  H
  C436     1.0000 0.98183  0.29894  0.46044  Biso   1.000  C
  H344     1.0000 0.96740  0.32440  0.45150  Biso   1.000  H
  C437     1.0000 0.97190  0.25421  0.45206  Biso   1.000  C
  C438     1.0000 0.05910  0.23890  0.51384  Biso   1.000  C
  H345     1.0000 0.08140  0.26120  0.51640  Biso   1.000  H
  H346     1.0000 0.07050  0.21160  0.50480  Biso   1.000  H
  C439     1.0000 0.08420  0.16841  0.62570  Biso   1.000  C
  C440     1.0000 0.12246  0.15461  0.61819  Biso   1.000  C
  H347     1.0000 0.13970  0.13780  0.63410  Biso   1.000  H
  C441     1.0000 0.13553  0.16543  0.58741  Biso   1.000  C
  H348     1.0000 0.16170  0.15600  0.58230  Biso   1.000  H
  C442     1.0000 0.11034  0.19005  0.56415  Biso   1.000  C
  H349     1.0000 0.11930  0.19740  0.54310  Biso   1.000  H
  C443     1.0000 0.07209  0.20385  0.57167  Biso   1.000  C
  C444     1.0000 0.05902  0.19303  0.60244  Biso   1.000  C
  C445     1.0000 0.02076  0.20683  0.60995  Biso   1.000  C
  H350     1.0000 0.01180  0.19940  0.63100  Biso   1.000  H
  C446     1.0000 0.99558  0.23145  0.58669  Biso   1.000  C
  H351     1.0000 0.96940  0.24090  0.59180  Biso   1.000  H
  C447     1.0000 0.00865  0.24227  0.55592  Biso   1.000  C
  H352     1.0000 0.99140  0.25910  0.54000  Biso   1.000  H
  C448     1.0000 0.04690  0.22847  0.54840  Biso   1.000  C
  N97      1.0000 0.10488  0.25433  0.69108  Biso   1.000  N
  C449     1.0000 0.12189  0.26998  0.66313  Biso   1.000  C
  C450     1.0000 0.09866  0.29602  0.63953  Biso   1.000  C
  H353     1.0000 0.11030  0.30670  0.62040  Biso   1.000  H
  C451     1.0000 0.05841  0.30641  0.64388  Biso   1.000  C
  H354     1.0000 0.04250  0.32420  0.62780  Biso   1.000  H
  C452     1.0000 0.04140  0.29077  0.67183  Biso   1.000  C
  H355     1.0000 0.01390  0.29790  0.67480  Biso   1.000  H
  C453     1.0000 0.06464  0.26473  0.69543  Biso   1.000  C
  H356     1.0000 0.05300  0.25400  0.71450  Biso   1.000  H
  N98      1.0000 0.18432  0.23572  0.68703  Biso   1.000  N
  N99      1.0000 0.22541  0.23274  0.67949  Biso   1.000  N
  C454     1.0000 0.22811  0.25528  0.64871  Biso   1.000  C
  H357     1.0000 0.25210  0.25850  0.63770  Biso   1.000  H
  C455     1.0000 0.18870  0.27218  0.63723  Biso   1.000  C
  H358     1.0000 0.18170  0.28870  0.61720  Biso   1.000  H
  C456     1.0000 0.16164  0.26009  0.66091  Biso   1.000  C
  C457     1.0000 0.25510  0.20650  0.69674  Biso   1.000  C
  H359     1.0000 0.25220  0.20840  0.72100  Biso   1.000  H
  H360     1.0000 0.28230  0.21870  0.69340  Biso   1.000  H
  N100     1.0000 0.45350  0.97656  0.65890  Biso   1.000  N
  C458     1.0000 0.44634  0.95030  0.68615  Biso   1.000  C
  C459     1.0000 0.47592  0.92040  0.69953  Biso   1.000  C
  H361     1.0000 0.47100  0.90250  0.71810  Biso   1.000  H
  C460     1.0000 0.51265  0.91670  0.68566  Biso   1.000  C
  H362     1.0000 0.53290  0.89620  0.69480  Biso   1.000  H
  C461     1.0000 0.51981  0.94290  0.65841  Biso   1.000  C
  H363     1.0000 0.54490  0.94030  0.64890  Biso   1.000  H
  C462     1.0000 0.49023  0.97280  0.64503  Biso   1.000  C
  H364     1.0000 0.49510  0.99080  0.62640  Biso   1.000  H
  N101     1.0000 0.38111  0.98531  0.68194  Biso   1.000  N
  N102     1.0000 0.34403  0.98027  0.69659  Biso   1.000  N
  C463     1.0000 0.34989  0.94634  0.72121  Biso   1.000  C
  H365     1.0000 0.33010  0.93610  0.73490  Biso   1.000  H
  C464     1.0000 0.39060  0.93041  0.72179  Biso   1.000  C
  H366     1.0000 0.40280  0.90760  0.73590  Biso   1.000  H
  C465     1.0000 0.40989  0.95450  0.69752  Biso   1.000  C
  C466     1.0000 0.31030  0.00640  0.68693  Biso   1.000  C
  H367     1.0000 0.28590  0.99170  0.69420  Biso   1.000  H
  H368     1.0000 0.30640  0.00780  0.66210  Biso   1.000  H
  C467     1.0000 0.25379  0.15726  0.68630  Biso   1.000  C
  C468     1.0000 0.22097  0.14299  0.66397  Biso   1.000  C
  H369     1.0000 0.20020  0.16330  0.65570  Biso   1.000  H
  C469     1.0000 0.21852  0.09894  0.65382  Biso   1.000  C
  H370     1.0000 0.19610  0.08920  0.63860  Biso   1.000  H
  C470     1.0000 0.24888  0.06916  0.66599  Biso   1.000  C
  H371     1.0000 0.24720  0.03910  0.65900  Biso   1.000  H
  C471     1.0000 0.28170  0.08343  0.68831  Biso   1.000  C
  C472     1.0000 0.28416  0.12749  0.69847  Biso   1.000  C
  C473     1.0000 0.31698  0.14176  0.72079  Biso   1.000  C
  H372     1.0000 0.31870  0.17190  0.72770  Biso   1.000  H
  C474     1.0000 0.34734  0.11199  0.73296  Biso   1.000  C
  H373     1.0000 0.36980  0.12170  0.74820  Biso   1.000  H
  C475     1.0000 0.34489  0.06793  0.72280  Biso   1.000  C
  H374     1.0000 0.36560  0.04760  0.73110  Biso   1.000  H
  C476     1.0000 0.31207  0.05366  0.70048  Biso   1.000  C
  N103     1.0000 0.11944  0.53783  0.39241  Biso   1.000  N
  C477     1.0000 0.10336  0.53908  0.42302  Biso   1.000  C
  C478     1.0000 0.11374  0.57351  0.44542  Biso   1.000  C
  H375     1.0000 0.10270  0.57440  0.46630  Biso   1.000  H
  C479     1.0000 0.14020  0.60668  0.43721  Biso   1.000  C
  H376     1.0000 0.14730  0.63020  0.45250  Biso   1.000  H
  C480     1.0000 0.15628  0.60542  0.40660  Biso   1.000  C
  H377     1.0000 0.17440  0.62810  0.40100  Biso   1.000  H
  C481     1.0000 0.14590  0.57100  0.38420  Biso   1.000  C
  H378     1.0000 0.15690  0.57010  0.36330  Biso   1.000  H
  N104     1.0000 0.06870  0.47236  0.40501  Biso   1.000  N
  N105     1.0000 0.03809  0.44455  0.41610  Biso   1.000  N
  C482     1.0000 0.02765  0.46160  0.44704  Biso   1.000  C
  H379     1.0000 0.00800  0.44950  0.46010  Biso   1.000  H
  C483     1.0000 0.05181  0.49995  0.45507  Biso   1.000  C
  H380     1.0000 0.05110  0.51800  0.47440  Biso   1.000  H
  C484     1.0000 0.07718  0.50660  0.42909  Biso   1.000  C
  C485     1.0000 0.02490  0.40610  0.40053  Biso   1.000  C
  H381     1.0000 0.02510  0.40990  0.37600  Biso   1.000  H
  H382     1.0000 0.99610  0.40100  0.40470  Biso   1.000  H
  N106     1.0000 0.96627  0.09305  0.44928  Biso   1.000  N
  C486     1.0000 0.98131  0.07800  0.42027  Biso   1.000  C
  C487     1.0000 0.96715  0.03831  0.40566  Biso   1.000  C
  H383     1.0000 0.97740  0.02800  0.38580  Biso   1.000  H
  C488     1.0000 0.93796  0.01368  0.42006  Biso   1.000  C
  H384     1.0000 0.92830  0.98660  0.41010  Biso   1.000  H
  C489     1.0000 0.92293  0.02874  0.44907  Biso   1.000  C
  H385     1.0000 0.90300  0.01190  0.45890  Biso   1.000  H
  C490     1.0000 0.93708  0.06842  0.46368  Biso   1.000  C
  H386     1.0000 0.92680  0.07870  0.48350  Biso   1.000  H
  N107     1.0000 0.02262  0.14301  0.42433  Biso   1.000  N
  N108     1.0000 0.05246  0.16316  0.40628  Biso   1.000  N
  C491     1.0000 0.05777  0.13588  0.37823  Biso   1.000  C
  H387     1.0000 0.07590  0.14140  0.36190  Biso   1.000  H
  C492     1.0000 0.03122  0.09887  0.37895  Biso   1.000  C
  H388     1.0000 0.02850  0.07530  0.36310  Biso   1.000  H
  C493     1.0000 0.00950  0.10327  0.40744  Biso   1.000  C
  C494     1.0000 0.07140  0.20260  0.41535  Biso   1.000  C
  H389     1.0000 0.09930  0.20220  0.40840  Biso   1.000  H
  H390     1.0000 0.07410  0.20520  0.44010  Biso   1.000  H
  C495     1.0000 0.04967  0.36481  0.41140  Biso   1.000  C
  C496     1.0000 0.08309  0.36980  0.43564  Biso   1.000  C
  H391     1.0000 0.09090  0.39850  0.44370  Biso   1.000  H
  C497     1.0000 0.10506  0.33282  0.44800  Biso   1.000  C
  H392     1.0000 0.12790  0.33620  0.46460  Biso   1.000  H
  C498     1.0000 0.09361  0.29084  0.43614  Biso   1.000  C
  H393     1.0000 0.10860  0.26560  0.44460  Biso   1.000  H
  C499     1.0000 0.06019  0.28585  0.41190  Biso   1.000  C
  C500     1.0000 0.03822  0.32283  0.39953  Biso   1.000  C
  C501     1.0000 0.00480  0.31784  0.37530  Biso   1.000  C
  H394     1.0000 0.98980  0.34310  0.36680  Biso   1.000  H
  C502     1.0000 0.99335  0.27586  0.36343  Biso   1.000  C
  H395     1.0000 0.97050  0.27250  0.34690  Biso   1.000  H
  C503     1.0000 0.01531  0.23888  0.37579  Biso   1.000  C
  H396     1.0000 0.00750  0.21020  0.36770  Biso   1.000  H
  C504     1.0000 0.04874  0.24387  0.40003  Biso   1.000  C
  Co13     1.0000 0.23402  0.95861  0.38424  Biso   1.000  Co
  Co14     1.0000 0.35561  0.28609  0.27624  Biso   1.000  Co
  Co15     1.0000 0.40127  0.01652  0.63886  Biso   1.000  Co
  Co16     1.0000 0.98690  0.15825  0.46497  Biso   1.000  Co
  N109     1.0000 0.20039  0.95698  0.42669  Biso   1.000  N
  C505     1.0000 0.20749  0.99292  0.44826  Biso   1.000  C
  C506     1.0000 0.18962  0.99430  0.47805  Biso   1.000  C
  H397     1.0000 0.19450  0.01890  0.49280  Biso   1.000  H
  C507     1.0000 0.16463  0.95975  0.48628  Biso   1.000  C
  H398     1.0000 0.15240  0.96070  0.50660  Biso   1.000  H
  C508     1.0000 0.15753  0.92382  0.46471  Biso   1.000  C
  H399     1.0000 0.14050  0.90020  0.47030  Biso   1.000  H
  C509     1.0000 0.17541  0.92243  0.43491  Biso   1.000  C
  H400     1.0000 0.17060  0.89790  0.42020  Biso   1.000  H
  N110     1.0000 0.25508  0.01793  0.41137  Biso   1.000  N
  N111     1.0000 0.28351  0.05322  0.41058  Biso   1.000  N
  C510     1.0000 0.28011  0.08073  0.43888  Biso   1.000  C
  H401     1.0000 0.29550  0.10680  0.44460  Biso   1.000  H
  C511     1.0000 0.24957  0.06243  0.45716  Biso   1.000  C
  H402     1.0000 0.24100  0.07410  0.47720  Biso   1.000  H
  C512     1.0000 0.23410  0.02362  0.44016  Biso   1.000  C
  C513     1.0000 0.30740  0.06100  0.38500  Biso   1.000  C
  H403     1.0000 0.33370  0.07400  0.39480  Biso   1.000  H
  H404     1.0000 0.31350  0.03230  0.37470  Biso   1.000  H
  N112     1.0000 0.40137  0.29967  0.24181  Biso   1.000  N
  C514     1.0000 0.40144  0.26935  0.21571  Biso   1.000  C
  C515     1.0000 0.42797  0.27509  0.19140  Biso   1.000  C
  H405     1.0000 0.42800  0.25440  0.17360  Biso   1.000  H
  C516     1.0000 0.45444  0.31110  0.19321  Biso   1.000  C
  H406     1.0000 0.47260  0.31510  0.17660  Biso   1.000  H
  C517     1.0000 0.45437  0.34145  0.21931  Biso   1.000  C
  H407     1.0000 0.47250  0.36610  0.22050  Biso   1.000  H
  C518     1.0000 0.42784  0.33572  0.24362  Biso   1.000  C
  H408     1.0000 0.42780  0.35640  0.26150  Biso   1.000  H
  N113     1.0000 0.34675  0.23469  0.24032  Biso   1.000  N
  N114     1.0000 0.32021  0.19798  0.23307  Biso   1.000  N
  C519     1.0000 0.33110  0.17712  0.20359  Biso   1.000  C
  H409     1.0000 0.31840  0.15170  0.19310  Biso   1.000  H
  C520     1.0000 0.36439  0.20093  0.19262  Biso   1.000  C
  H410     1.0000 0.37780  0.19420  0.17350  Biso   1.000  H
  C521     1.0000 0.37406  0.23652  0.21532  Biso   1.000  C
  C522     1.0000 0.29420  0.18350  0.25553  Biso   1.000  C
  H411     1.0000 0.28350  0.20970  0.26660  Biso   1.000  H
  H412     1.0000 0.27060  0.16840  0.24280  Biso   1.000  H
  C523     1.0000 0.28788  0.09193  0.35737  Biso   1.000  C
  C524     1.0000 0.24729  0.10445  0.35799  Biso   1.000  C
  H413     1.0000 0.23220  0.09360  0.37510  Biso   1.000  H
  C525     1.0000 0.22875  0.13282  0.33351  Biso   1.000  C
  H414     1.0000 0.20100  0.14140  0.33390  Biso   1.000  H
  C526     1.0000 0.25080  0.14869  0.30840  Biso   1.000  C
  H415     1.0000 0.23810  0.16810  0.29170  Biso   1.000  H
  C527     1.0000 0.29139  0.13617  0.30778  Biso   1.000  C
  C528     1.0000 0.30993  0.10780  0.33227  Biso   1.000  C
  C529     1.0000 0.35052  0.09528  0.33165  Biso   1.000  C
  H416     1.0000 0.36320  0.07590  0.34840  Biso   1.000  H
  C530     1.0000 0.37257  0.11115  0.30654  Biso   1.000  C
  H417     1.0000 0.40030  0.10260  0.30610  Biso   1.000  H
  C531     1.0000 0.35404  0.13953  0.28206  Biso   1.000  C
  H418     1.0000 0.36910  0.15040  0.26490  Biso   1.000  H
  C532     1.0000 0.31345  0.15204  0.28268  Biso   1.000  C
  N115     1.0000 0.20913  0.89681  0.36370  Biso   1.000  N
  C533     1.0000 0.23202  0.85960  0.37416  Biso   1.000  C
  C534     1.0000 0.21736  0.81754  0.36523  Biso   1.000  C
  H419     1.0000 0.23300  0.79210  0.37240  Biso   1.000  H
  C535     1.0000 0.17982  0.81270  0.34584  Biso   1.000  C
  H420     1.0000 0.16980  0.78400  0.33970  Biso   1.000  H
  C536     1.0000 0.15694  0.84991  0.33537  Biso   1.000  C
  H421     1.0000 0.13130  0.84660  0.32210  Biso   1.000  H
  C537     1.0000 0.17159  0.89197  0.34430  Biso   1.000  C
  H422     1.0000 0.15590  0.91740  0.33720  Biso   1.000  H
  N116     1.0000 0.27526  0.91018  0.40643  Biso   1.000  N
  N117     1.0000 0.31467  0.91045  0.42503  Biso   1.000  N
  C538     1.0000 0.33138  0.86718  0.42369  Biso   1.000  C
  H423     1.0000 0.35740  0.85790  0.43400  Biso   1.000  H
  C539     1.0000 0.30230  0.84018  0.40426  Biso   1.000  C
  H424     1.0000 0.30550  0.80970  0.39930  Biso   1.000  H
  C540     1.0000 0.26762  0.86675  0.39359  Biso   1.000  C
  C541     1.0000 0.32780  0.94580  0.44475  Biso   1.000  C
  H425     1.0000 0.35790  0.94390  0.44990  Biso   1.000  H
  H426     1.0000 0.32160  0.97330  0.43170  Biso   1.000  H
  N118     1.0000 0.41979  0.07460  0.66575  Biso   1.000  N
  C542     1.0000 0.39617  0.11199  0.65728  Biso   1.000  C
  C543     1.0000 0.40794  0.15286  0.67117  Biso   1.000  C
  H427     1.0000 0.39180  0.17840  0.66540  Biso   1.000  H
  C544     1.0000 0.44334  0.15634  0.69352  Biso   1.000  C
  H428     1.0000 0.45140  0.18430  0.70300  Biso   1.000  H
  C545     1.0000 0.46696  0.11895  0.70198  Biso   1.000  C
  H429     1.0000 0.49120  0.12130  0.71730  Biso   1.000  H
  C546     1.0000 0.45519  0.07808  0.68810  Biso   1.000  C
  H430     1.0000 0.47130  0.05250  0.69390  Biso   1.000  H
  N119     1.0000 0.35203  0.06163  0.62424  Biso   1.000  N
  N120     1.0000 0.31307  0.06272  0.60494  Biso   1.000  N
  C547     1.0000 0.29824  0.10691  0.60507  Biso   1.000  C
  H431     1.0000 0.27280  0.11710  0.59410  Biso   1.000  H
  C548     1.0000 0.32804  0.13312  0.62445  Biso   1.000  C
  H432     1.0000 0.32610  0.16400  0.62870  Biso   1.000  H
  C549     1.0000 0.36128  0.10513  0.63629  Biso   1.000  C
  C550     1.0000 0.29680  0.02820  0.58535  Biso   1.000  C
  H433     1.0000 0.30350  0.00020  0.59750  Biso   1.000  H
  H434     1.0000 0.26660  0.03130  0.58250  Biso   1.000  H
  C551     1.0000 0.30898  0.94984  0.47810  Biso   1.000  C
  C552     1.0000 0.28283  0.91694  0.48727  Biso   1.000  C
  H435     1.0000 0.27630  0.89240  0.47280  Biso   1.000  H
  C553     1.0000 0.26622  0.91999  0.51758  Biso   1.000  C
  H436     1.0000 0.24830  0.89750  0.52390  Biso   1.000  H
  C554     1.0000 0.27576  0.95593  0.53871  Biso   1.000  C
  H437     1.0000 0.26440  0.95800  0.55940  Biso   1.000  H
  C555     1.0000 0.30191  0.98883  0.52954  Biso   1.000  C
  C556     1.0000 0.31852  0.98578  0.49923  Biso   1.000  C
  C557     1.0000 0.34467  0.01868  0.49005  Biso   1.000  C
  H438     1.0000 0.35600  0.01660  0.46930  Biso   1.000  H
  C558     1.0000 0.35422  0.05463  0.51118  Biso   1.000  C
  H439     1.0000 0.37210  0.07710  0.50490  Biso   1.000  H
  C559     1.0000 0.33761  0.05767  0.54149  Biso   1.000  C
  H440     1.0000 0.34410  0.08220  0.55590  Biso   1.000  H
  C560     1.0000 0.31146  0.02478  0.55067  Biso   1.000  C
  N121     1.0000 0.27133  0.96796  0.34460  Biso   1.000  N
  C561     1.0000 0.25363  0.99371  0.31807  Biso   1.000  C
  C562     1.0000 0.27637  0.00572  0.29230  Biso   1.000  C
  H441     1.0000 0.26430  0.02330  0.27420  Biso   1.000  H
  C563     1.0000 0.31681  0.99198  0.29305  Biso   1.000  C
  H442     1.0000 0.33240  0.00020  0.27540  Biso   1.000  H
  C564     1.0000 0.33451  0.96623  0.31957  Biso   1.000  C
  H443     1.0000 0.36220  0.95680  0.32010  Biso   1.000  H
  C565     1.0000 0.31177  0.95422  0.34534  Biso   1.000  C
  H444     1.0000 0.32390  0.93660  0.36350  Biso   1.000  H
  N122     1.0000 0.19450  0.99249  0.34727  Biso   1.000  N
  N123     1.0000 0.15238  0.00370  0.34116  Biso   1.000  N
  C566     1.0000 0.14514  0.02170  0.30829  Biso   1.000  C
  H445     1.0000 0.11960  0.03200  0.29770  Biso   1.000  H
  C567     1.0000 0.18279  0.02160  0.29408  Biso   1.000  C
  H446     1.0000 0.18690  0.03180  0.27230  Biso   1.000  H
  C568     1.0000 0.21330  0.00356  0.31818  Biso   1.000  C
  C569     1.0000 0.12650  0.99950  0.36520  Biso   1.000  C
  H447     1.0000 0.09810  0.99740  0.35390  Biso   1.000  H
  H448     1.0000 0.13270  0.97140  0.37740  Biso   1.000  H
  N124     1.0000 0.94748  0.16304  0.50491  Biso   1.000  N
  C570     1.0000 0.96267  0.14219  0.53467  Biso   1.000  C
  C571     1.0000 0.94108  0.14443  0.56251  Biso   1.000  C
  H449     1.0000 0.95150  0.13020  0.58280  Biso   1.000  H
  C572     1.0000 0.90431  0.16751  0.56059  Biso   1.000  C
  H450     1.0000 0.88960  0.16900  0.57960  Biso   1.000  H
  C573     1.0000 0.88913  0.18836  0.53084  Biso   1.000  C
  H451     1.0000 0.86400  0.20410  0.52950  Biso   1.000  H
  C574     1.0000 0.91071  0.18612  0.50300  Biso   1.000  C
  H452     1.0000 0.90030  0.20040  0.48270  Biso   1.000  H
  N125     1.0000 0.02236  0.13036  0.50755  Biso   1.000  N
  N126     1.0000 0.06159  0.11080  0.51517  Biso   1.000  N
  C575     1.0000 0.06366  0.09232  0.54790  Biso   1.000  C
  H453     1.0000 0.08640  0.07720  0.55940  Biso   1.000  H
  C576     1.0000 0.02570  0.10046  0.56052  Biso   1.000  C
  H454     1.0000 0.01860  0.09170  0.58190  Biso   1.000  H
  C577     1.0000 0.00018  0.12397  0.53558  Biso   1.000  C
  C578     1.0000 0.09025  0.11010  0.49292  Biso   1.000  C
  H455     1.0000 0.08790  0.13790  0.47970  Biso   1.000  H
  H456     1.0000 0.11780  0.10980  0.50580  Biso   1.000  H
  C579     1.0000 0.12819  0.03697  0.39076  Biso   1.000  C
  C580     1.0000 0.15357  0.07262  0.38578  Biso   1.000  C
  H457     1.0000 0.16870  0.07300  0.36690  Biso   1.000  H
  C581     1.0000 0.15683  0.10774  0.40837  Biso   1.000  C
  H458     1.0000 0.17420  0.13210  0.40500  Biso   1.000  H
  C582     1.0000 0.13470  0.10720  0.43594  Biso   1.000  C
  H459     1.0000 0.13690  0.13120  0.45140  Biso   1.000  H
  C583     1.0000 0.10932  0.07154  0.44092  Biso   1.000  C
  C584     1.0000 0.10606  0.03642  0.41833  Biso   1.000  C
  C585     1.0000 0.08068  0.00076  0.42330  Biso   1.000  C
  H460     1.0000 0.07850  0.97680  0.40790  Biso   1.000  H
  C586     1.0000 0.05855  0.00022  0.45087  Biso   1.000  C
  H461     1.0000 0.04120  0.97580  0.45430  Biso   1.000  H
  C587     1.0000 0.06180  0.03533  0.47346  Biso   1.000  C
  H462     1.0000 0.04670  0.03500  0.49230  Biso   1.000  H
  C588     1.0000 0.08719  0.07099  0.46848  Biso   1.000  C
  N127     1.0000 0.31147  0.32855  0.24965  Biso   1.000  N
  C589     1.0000 0.31365  0.37277  0.25938  Biso   1.000  C
  C590     1.0000 0.28433  0.40269  0.24550  Biso   1.000  C
  H463     1.0000 0.28580  0.43290  0.25220  Biso   1.000  H
  C591     1.0000 0.25284  0.38838  0.22190  Biso   1.000  C
  H464     1.0000 0.23280  0.40880  0.21240  Biso   1.000  H
  C592     1.0000 0.25066  0.34416  0.21217  Biso   1.000  C
  H465     1.0000 0.22910  0.33440  0.19600  Biso   1.000  H
  C593     1.0000 0.27997  0.31424  0.22604  Biso   1.000  C
  H466     1.0000 0.27850  0.28400  0.21940  Biso   1.000  H
  N128     1.0000 0.36963  0.34978  0.29810  Biso   1.000  N
  N129     1.0000 0.40151  0.36951  0.32001  Biso   1.000  N
  C594     1.0000 0.39637  0.41620  0.31820  Biso   1.000  C
  H467     1.0000 0.41340  0.43760  0.33030  Biso   1.000  H
  C595     1.0000 0.36131  0.42532  0.29516  Biso   1.000  C
  H468     1.0000 0.35080  0.45390  0.28910  Biso   1.000  H
  C596     1.0000 0.34478  0.38427  0.28274  Biso   1.000  C
  C597     1.0000 0.42990  0.34530  0.34073  Biso   1.000  C
  H469     1.0000 0.43690  0.31830  0.32860  Biso   1.000  H
  H470     1.0000 0.45520  0.36310  0.34520  Biso   1.000  H
  N130     1.0000 0.55811  0.31080  0.57066  Biso   1.000  N
  C598     1.0000 0.55779  0.26476  0.56958  Biso   1.000  C
  C599     1.0000 0.58642  0.24076  0.59045  Biso   1.000  C
  H471     1.0000 0.58620  0.20930  0.58970  Biso   1.000  H
  C600     1.0000 0.61536  0.26279  0.61240  Biso   1.000  C
  H472     1.0000 0.63490  0.24640  0.62670  Biso   1.000  H
  C601     1.0000 0.61568  0.30883  0.61348  Biso   1.000  C
  H473     1.0000 0.63550  0.32390  0.62850  Biso   1.000  H
  C602     1.0000 0.58706  0.33283  0.59260  Biso   1.000  C
  H474     1.0000 0.58730  0.36430  0.59330  Biso   1.000  H
  N131     1.0000 0.49900  0.27340  0.52910  Biso   1.000  N
  N132     1.0000 0.47109  0.24574  0.50908  Biso   1.000  N
  C603     1.0000 0.48294  0.20103  0.51554  Biso   1.000  C
  H475     1.0000 0.46960  0.17560  0.50560  Biso   1.000  H
  C604     1.0000 0.51817  0.20106  0.53956  Biso   1.000  C
  H476     1.0000 0.53260  0.17560  0.54850  Biso   1.000  H
  C605     1.0000 0.52810  0.24579  0.54794  Biso   1.000  C
  C606     1.0000 0.44090  0.26110  0.48616  Biso   1.000  C
  H477     1.0000 0.41860  0.23880  0.48360  Biso   1.000  H
  H478     1.0000 0.42950  0.28840  0.49520  Biso   1.000  H
  C607     1.0000 0.41580  0.33159  0.37430  Biso   1.000  C
  C608     1.0000 0.37754  0.34539  0.38181  Biso   1.000  C
  H479     1.0000 0.36030  0.36220  0.36590  Biso   1.000  H
  C609     1.0000 0.36447  0.33457  0.41259  Biso   1.000  C
  H480     1.0000 0.33830  0.34400  0.41770  Biso   1.000  H
  C610     1.0000 0.38966  0.30995  0.43585  Biso   1.000  C
  H481     1.0000 0.38070  0.30260  0.45690  Biso   1.000  H
  C611     1.0000 0.42791  0.29615  0.42833  Biso   1.000  C
  C612     1.0000 0.44098  0.30697  0.39756  Biso   1.000  C
  C613     1.0000 0.47924  0.29317  0.39005  Biso   1.000  C
  H482     1.0000 0.48820  0.30060  0.36900  Biso   1.000  H
  C614     1.0000 0.50442  0.26855  0.41331  Biso   1.000  C
  H483     1.0000 0.53060  0.25910  0.40820  Biso   1.000  H
  C615     1.0000 0.49135  0.25773  0.44408  Biso   1.000  C
  H484     1.0000 0.50860  0.24090  0.46000  Biso   1.000  H
  C616     1.0000 0.45310  0.27153  0.45160  Biso   1.000  C
  N133     1.0000 0.39512  0.24567  0.30892  Biso   1.000  N
  C617     1.0000 0.37811  0.23002  0.33687  Biso   1.000  C
  C618     1.0000 0.40134  0.20398  0.36047  Biso   1.000  C
  H485     1.0000 0.38970  0.19330  0.37960  Biso   1.000  H
  C619     1.0000 0.44159  0.19359  0.35612  Biso   1.000  C
  H486     1.0000 0.45750  0.17580  0.37220  Biso   1.000  H
  C620     1.0000 0.45860  0.20923  0.32817  Biso   1.000  C
  H487     1.0000 0.48610  0.20210  0.32520  Biso   1.000  H
  C621     1.0000 0.43536  0.23527  0.30457  Biso   1.000  C
  H488     1.0000 0.44700  0.24600  0.28550  Biso   1.000  H
  N134     1.0000 0.31568  0.26428  0.31297  Biso   1.000  N
  N135     1.0000 0.27459  0.26726  0.32051  Biso   1.000  N
  C622     1.0000 0.27189  0.24472  0.35129  Biso   1.000  C
  H489     1.0000 0.24790  0.24150  0.36230  Biso   1.000  H
  C623     1.0000 0.31130  0.22782  0.36277  Biso   1.000  C
  H490     1.0000 0.31830  0.21130  0.38280  Biso   1.000  H
  C624     1.0000 0.33836  0.23991  0.33909  Biso   1.000  C
  C625     1.0000 0.24490  0.29350  0.30326  Biso   1.000  C
  H491     1.0000 0.24780  0.29160  0.27900  Biso   1.000  H
  H492     1.0000 0.21770  0.28130  0.30660  Biso   1.000  H
  N136     1.0000 0.04650  0.52344  0.34110  Biso   1.000  N
  C626     1.0000 0.05366  0.54970  0.31385  Biso   1.000  C
  C627     1.0000 0.02408  0.57960  0.30047  Biso   1.000  C
  H493     1.0000 0.02900  0.59750  0.28190  Biso   1.000  H
  C628     1.0000 0.98735  0.58330  0.31434  Biso   1.000  C
  H494     1.0000 0.96710  0.60380  0.30520  Biso   1.000  H
  C629     1.0000 0.98019  0.55710  0.34159  Biso   1.000  C
  H495     1.0000 0.95510  0.55970  0.35110  Biso   1.000  H
  C630     1.0000 0.00977  0.52720  0.35497  Biso   1.000  C
  H496     1.0000 0.00490  0.50920  0.37360  Biso   1.000  H
  N137     1.0000 0.11889  0.51469  0.31806  Biso   1.000  N
  N138     1.0000 0.15597  0.51973  0.30341  Biso   1.000  N
  C631     1.0000 0.15011  0.55366  0.27879  Biso   1.000  C
  H497     1.0000 0.16990  0.56390  0.26510  Biso   1.000  H
  C632     1.0000 0.10940  0.56959  0.27821  Biso   1.000  C
  H498     1.0000 0.09720  0.59240  0.26410  Biso   1.000  H
  C633     1.0000 0.09011  0.54550  0.30248  Biso   1.000  C
  C634     1.0000 0.18970  0.49360  0.31307  Biso   1.000  C
  H499     1.0000 0.21410  0.50830  0.30580  Biso   1.000  H
  H500     1.0000 0.19360  0.49220  0.33790  Biso   1.000  H
  C635     1.0000 0.24621  0.34274  0.31370  Biso   1.000  C
  C636     1.0000 0.27903  0.35701  0.33603  Biso   1.000  C
  H501     1.0000 0.29980  0.33670  0.34430  Biso   1.000  H
  C637     1.0000 0.28148  0.40106  0.34618  Biso   1.000  C
  H502     1.0000 0.30390  0.41080  0.36140  Biso   1.000  H
  C638     1.0000 0.25112  0.43084  0.33401  Biso   1.000  C
  H503     1.0000 0.25280  0.46090  0.34100  Biso   1.000  H
  C639     1.0000 0.21830  0.41657  0.31169  Biso   1.000  C
  C640     1.0000 0.21584  0.37251  0.30153  Biso   1.000  C
  C641     1.0000 0.18302  0.35824  0.27921  Biso   1.000  C
  H504     1.0000 0.18130  0.32810  0.27230  Biso   1.000  H
  C642     1.0000 0.15266  0.38801  0.26704  Biso   1.000  C
  H505     1.0000 0.13020  0.37830  0.25180  Biso   1.000  H
  C643     1.0000 0.15511  0.43207  0.27720  Biso   1.000  C
  H506     1.0000 0.13440  0.45240  0.26890  Biso   1.000  H
  C644     1.0000 0.18793  0.44634  0.29952  Biso   1.000  C
  N139     1.0000 0.38056  0.96217  0.60759  Biso   1.000  N
  C645     1.0000 0.39664  0.96092  0.57698  Biso   1.000  C
  C646     1.0000 0.38626  0.92649  0.55458  Biso   1.000  C
  H507     1.0000 0.39730  0.92560  0.53370  Biso   1.000  H
  C647     1.0000 0.35980  0.89332  0.56279  Biso   1.000  C
  H508     1.0000 0.35270  0.86980  0.54750  Biso   1.000  H
  C648     1.0000 0.34372  0.89458  0.59340  Biso   1.000  C
  H509     1.0000 0.32560  0.87190  0.59900  Biso   1.000  H
  C649     1.0000 0.35410  0.92900  0.61580  Biso   1.000  C
  H510     1.0000 0.34310  0.92990  0.63670  Biso   1.000  H
  N140     1.0000 0.43130  0.02764  0.59499  Biso   1.000  N
  N141     1.0000 0.46191  0.05545  0.58390  Biso   1.000  N
  C650     1.0000 0.47235  0.03840  0.55296  Biso   1.000  C
  H511     1.0000 0.49200  0.05050  0.53990  Biso   1.000  H
  C651     1.0000 0.44819  0.00005  0.54493  Biso   1.000  C
  H512     1.0000 0.44890  0.98200  0.52560  Biso   1.000  H
  C652     1.0000 0.42282  0.99340  0.57091  Biso   1.000  C
  C653     1.0000 0.47510  0.09390  0.59947  Biso   1.000  C
  H513     1.0000 0.47490  0.09010  0.62400  Biso   1.000  H
  H514     1.0000 0.50390  0.09900  0.59530  Biso   1.000  H
  N142     1.0000 0.53373  0.40695  0.55072  Biso   1.000  N
  C654     1.0000 0.51869  0.42200  0.57973  Biso   1.000  C
  C655     1.0000 0.53285  0.46169  0.59434  Biso   1.000  C
  H515     1.0000 0.52260  0.47200  0.61420  Biso   1.000  H
  C656     1.0000 0.56204  0.48632  0.57994  Biso   1.000  C
  H516     1.0000 0.57170  0.51340  0.58990  Biso   1.000  H
  C657     1.0000 0.57707  0.47126  0.55093  Biso   1.000  C
  H517     1.0000 0.59700  0.48810  0.54110  Biso   1.000  H
  C658     1.0000 0.56292  0.43158  0.53632  Biso   1.000  C
  H518     1.0000 0.57320  0.42130  0.51650  Biso   1.000  H
  N143     1.0000 0.47738  0.35699  0.57567  Biso   1.000  N
  N144     1.0000 0.44754  0.33684  0.59372  Biso   1.000  N
  C659     1.0000 0.44223  0.36412  0.62177  Biso   1.000  C
  H519     1.0000 0.42410  0.35860  0.63810  Biso   1.000  H
  C660     1.0000 0.46878  0.40113  0.62105  Biso   1.000  C
  H520     1.0000 0.47150  0.42470  0.63690  Biso   1.000  H
  C661     1.0000 0.49050  0.39673  0.59256  Biso   1.000  C
  C662     1.0000 0.42860  0.29740  0.58465  Biso   1.000  C
  H521     1.0000 0.40070  0.29780  0.59160  Biso   1.000  H
  H522     1.0000 0.42590  0.29480  0.55990  Biso   1.000  H
  C663     1.0000 0.45033  0.13519  0.58860  Biso   1.000  C
  C664     1.0000 0.41691  0.13020  0.56436  Biso   1.000  C
  H523     1.0000 0.40910  0.10150  0.55630  Biso   1.000  H
  C665     1.0000 0.39494  0.16718  0.55200  Biso   1.000  C
  H524     1.0000 0.37210  0.16380  0.53540  Biso   1.000  H
  C666     1.0000 0.40639  0.20916  0.56386  Biso   1.000  C
  H525     1.0000 0.39140  0.23440  0.55540  Biso   1.000  H
  C667     1.0000 0.43981  0.21415  0.58810  Biso   1.000  C
  C668     1.0000 0.46178  0.17717  0.60047  Biso   1.000  C
  C669     1.0000 0.49520  0.18216  0.62470  Biso   1.000  C
  H526     1.0000 0.51020  0.15690  0.63320  Biso   1.000  H
  C670     1.0000 0.50665  0.22414  0.63657  Biso   1.000  C
  H527     1.0000 0.52950  0.22750  0.65310  Biso   1.000  H
  C671     1.0000 0.48469  0.26112  0.62421  Biso   1.000  C
  H528     1.0000 0.49250  0.28980  0.63230  Biso   1.000  H
  C672     1.0000 0.45126  0.25613  0.59997  Biso   1.000  C
  Co17     1.0000 0.23402  0.04139  0.88424  Biso   1.000  Co
  Co18     1.0000 0.35561  0.71391  0.77624  Biso   1.000  Co
  Co19     1.0000 0.40127  0.98348  0.13886  Biso   1.000  Co
  Co20     1.0000 0.98690  0.84175  0.96497  Biso   1.000  Co
  N145     1.0000 0.20039  0.04302  0.92669  Biso   1.000  N
  C673     1.0000 0.20749  0.00708  0.94826  Biso   1.000  C
  C674     1.0000 0.18962  0.00570  0.97805  Biso   1.000  C
  H529     1.0000 0.19450  0.98110  0.99280  Biso   1.000  H
  C675     1.0000 0.16463  0.04025  0.98628  Biso   1.000  C
  H530     1.0000 0.15240  0.03930  0.00660  Biso   1.000  H
  C676     1.0000 0.15753  0.07618  0.96471  Biso   1.000  C
  H531     1.0000 0.14050  0.09980  0.97030  Biso   1.000  H
  C677     1.0000 0.17541  0.07757  0.93491  Biso   1.000  C
  H532     1.0000 0.17060  0.10210  0.92020  Biso   1.000  H
  N146     1.0000 0.25508  0.98207  0.91137  Biso   1.000  N
  N147     1.0000 0.28351  0.94678  0.91058  Biso   1.000  N
  C678     1.0000 0.28011  0.91927  0.93888  Biso   1.000  C
  H533     1.0000 0.29550  0.89320  0.94460  Biso   1.000  H
  C679     1.0000 0.24957  0.93757  0.95716  Biso   1.000  C
  H534     1.0000 0.24100  0.92590  0.97720  Biso   1.000  H
  C680     1.0000 0.23410  0.97638  0.94016  Biso   1.000  C
  C681     1.0000 0.30740  0.93900  0.88500  Biso   1.000  C
  H535     1.0000 0.33370  0.92600  0.89480  Biso   1.000  H
  H536     1.0000 0.31350  0.96770  0.87470  Biso   1.000  H
  N148     1.0000 0.40137  0.70033  0.74181  Biso   1.000  N
  C682     1.0000 0.40144  0.73065  0.71571  Biso   1.000  C
  C683     1.0000 0.42797  0.72491  0.69140  Biso   1.000  C
  H537     1.0000 0.42800  0.74560  0.67360  Biso   1.000  H
  C684     1.0000 0.45444  0.68890  0.69321  Biso   1.000  C
  H538     1.0000 0.47260  0.68490  0.67660  Biso   1.000  H
  C685     1.0000 0.45437  0.65855  0.71931  Biso   1.000  C
  H539     1.0000 0.47250  0.63390  0.72050  Biso   1.000  H
  C686     1.0000 0.42784  0.66428  0.74362  Biso   1.000  C
  H540     1.0000 0.42780  0.64360  0.76150  Biso   1.000  H
  N149     1.0000 0.34675  0.76531  0.74032  Biso   1.000  N
  N150     1.0000 0.32021  0.80202  0.73307  Biso   1.000  N
  C687     1.0000 0.33110  0.82288  0.70359  Biso   1.000  C
  H541     1.0000 0.31840  0.84830  0.69310  Biso   1.000  H
  C688     1.0000 0.36439  0.79907  0.69262  Biso   1.000  C
  H542     1.0000 0.37780  0.80580  0.67350  Biso   1.000  H
  C689     1.0000 0.37406  0.76348  0.71532  Biso   1.000  C
  C690     1.0000 0.29420  0.81650  0.75553  Biso   1.000  C
  H543     1.0000 0.28350  0.79030  0.76660  Biso   1.000  H
  H544     1.0000 0.27060  0.83160  0.74280  Biso   1.000  H
  C691     1.0000 0.28788  0.90807  0.85737  Biso   1.000  C
  C692     1.0000 0.24729  0.89555  0.85799  Biso   1.000  C
  H545     1.0000 0.23220  0.90640  0.87510  Biso   1.000  H
  C693     1.0000 0.22875  0.86718  0.83351  Biso   1.000  C
  H546     1.0000 0.20100  0.85860  0.83390  Biso   1.000  H
  C694     1.0000 0.25080  0.85131  0.80840  Biso   1.000  C
  H547     1.0000 0.23810  0.83190  0.79170  Biso   1.000  H
  C695     1.0000 0.29139  0.86383  0.80778  Biso   1.000  C
  C696     1.0000 0.30993  0.89220  0.83227  Biso   1.000  C
  C697     1.0000 0.35052  0.90472  0.83165  Biso   1.000  C
  H548     1.0000 0.36320  0.92410  0.84840  Biso   1.000  H
  C698     1.0000 0.37257  0.88885  0.80654  Biso   1.000  C
  H549     1.0000 0.40030  0.89740  0.80610  Biso   1.000  H
  C699     1.0000 0.35404  0.86047  0.78206  Biso   1.000  C
  H550     1.0000 0.36910  0.84960  0.76490  Biso   1.000  H
  C700     1.0000 0.31345  0.84796  0.78268  Biso   1.000  C
  N151     1.0000 0.20913  0.10319  0.86370  Biso   1.000  N
  C701     1.0000 0.23202  0.14040  0.87416  Biso   1.000  C
  C702     1.0000 0.21736  0.18246  0.86523  Biso   1.000  C
  H551     1.0000 0.23300  0.20790  0.87240  Biso   1.000  H
  C703     1.0000 0.17982  0.18730  0.84584  Biso   1.000  C
  H552     1.0000 0.16980  0.21600  0.83970  Biso   1.000  H
  C704     1.0000 0.15694  0.15009  0.83537  Biso   1.000  C
  H553     1.0000 0.13130  0.15340  0.82210  Biso   1.000  H
  C705     1.0000 0.17159  0.10803  0.84430  Biso   1.000  C
  H554     1.0000 0.15590  0.08260  0.83720  Biso   1.000  H
  N152     1.0000 0.27526  0.08982  0.90643  Biso   1.000  N
  N153     1.0000 0.31467  0.08955  0.92503  Biso   1.000  N
  C706     1.0000 0.33138  0.13282  0.92369  Biso   1.000  C
  H555     1.0000 0.35740  0.14210  0.93400  Biso   1.000  H
  C707     1.0000 0.30230  0.15982  0.90426  Biso   1.000  C
  H556     1.0000 0.30550  0.19030  0.89930  Biso   1.000  H
  C708     1.0000 0.26762  0.13325  0.89359  Biso   1.000  C
  C709     1.0000 0.32780  0.05420  0.94475  Biso   1.000  C
  H557     1.0000 0.35790  0.05610  0.94990  Biso   1.000  H
  H558     1.0000 0.32160  0.02670  0.93170  Biso   1.000  H
  N154     1.0000 0.41979  0.92540  0.16575  Biso   1.000  N
  C710     1.0000 0.39617  0.88801  0.15728  Biso   1.000  C
  C711     1.0000 0.40794  0.84714  0.17117  Biso   1.000  C
  H559     1.0000 0.39180  0.82160  0.16540  Biso   1.000  H
  C712     1.0000 0.44334  0.84366  0.19352  Biso   1.000  C
  H560     1.0000 0.45140  0.81570  0.20300  Biso   1.000  H
  C713     1.0000 0.46696  0.88105  0.20198  Biso   1.000  C
  H561     1.0000 0.49120  0.87870  0.21730  Biso   1.000  H
  C714     1.0000 0.45519  0.92192  0.18810  Biso   1.000  C
  H562     1.0000 0.47130  0.94750  0.19390  Biso   1.000  H
  N155     1.0000 0.35203  0.93837  0.12424  Biso   1.000  N
  N156     1.0000 0.31307  0.93728  0.10494  Biso   1.000  N
  C715     1.0000 0.29824  0.89309  0.10507  Biso   1.000  C
  H563     1.0000 0.27280  0.88290  0.09410  Biso   1.000  H
  C716     1.0000 0.32804  0.86688  0.12445  Biso   1.000  C
  H564     1.0000 0.32610  0.83600  0.12870  Biso   1.000  H
  C717     1.0000 0.36128  0.89487  0.13629  Biso   1.000  C
  C718     1.0000 0.29680  0.97180  0.08535  Biso   1.000  C
  H565     1.0000 0.30350  0.99980  0.09750  Biso   1.000  H
  H566     1.0000 0.26660  0.96870  0.08250  Biso   1.000  H
  C719     1.0000 0.30898  0.05016  0.97810  Biso   1.000  C
  C720     1.0000 0.28283  0.08306  0.98727  Biso   1.000  C
  H567     1.0000 0.27630  0.10760  0.97280  Biso   1.000  H
  C721     1.0000 0.26622  0.08001  0.01758  Biso   1.000  C
  H568     1.0000 0.24830  0.10250  0.02390  Biso   1.000  H
  C722     1.0000 0.27576  0.04407  0.03871  Biso   1.000  C
  H569     1.0000 0.26440  0.04200  0.05940  Biso   1.000  H
  C723     1.0000 0.30191  0.01117  0.02954  Biso   1.000  C
  C724     1.0000 0.31852  0.01422  0.99923  Biso   1.000  C
  C725     1.0000 0.34467  0.98132  0.99005  Biso   1.000  C
  H570     1.0000 0.35600  0.98340  0.96930  Biso   1.000  H
  C726     1.0000 0.35422  0.94537  0.01118  Biso   1.000  C
  H571     1.0000 0.37210  0.92290  0.00490  Biso   1.000  H
  C727     1.0000 0.33761  0.94233  0.04149  Biso   1.000  C
  H572     1.0000 0.34410  0.91780  0.05590  Biso   1.000  H
  C728     1.0000 0.31146  0.97522  0.05067  Biso   1.000  C
  N157     1.0000 0.27133  0.03204  0.84460  Biso   1.000  N
  C729     1.0000 0.25363  0.00629  0.81807  Biso   1.000  C
  C730     1.0000 0.27637  0.99428  0.79230  Biso   1.000  C
  H573     1.0000 0.26430  0.97670  0.77420  Biso   1.000  H
  C731     1.0000 0.31681  0.00802  0.79305  Biso   1.000  C
  H574     1.0000 0.33240  0.99980  0.77540  Biso   1.000  H
  C732     1.0000 0.33451  0.03377  0.81957  Biso   1.000  C
  H575     1.0000 0.36220  0.04320  0.82010  Biso   1.000  H
  C733     1.0000 0.31177  0.04578  0.84534  Biso   1.000  C
  H576     1.0000 0.32390  0.06340  0.86350  Biso   1.000  H
  N158     1.0000 0.19450  0.00751  0.84727  Biso   1.000  N
  N159     1.0000 0.15238  0.99630  0.84116  Biso   1.000  N
  C734     1.0000 0.14514  0.97830  0.80829  Biso   1.000  C
  H577     1.0000 0.11960  0.96800  0.79770  Biso   1.000  H
  C735     1.0000 0.18279  0.97840  0.79408  Biso   1.000  C
  H578     1.0000 0.18690  0.96820  0.77230  Biso   1.000  H
  C736     1.0000 0.21330  0.99644  0.81818  Biso   1.000  C
  C737     1.0000 0.12650  0.00050  0.86520  Biso   1.000  C
  H579     1.0000 0.09810  0.00260  0.85390  Biso   1.000  H
  H580     1.0000 0.13270  0.02860  0.87740  Biso   1.000  H
  N160     1.0000 0.94748  0.83696  0.00491  Biso   1.000  N
  C738     1.0000 0.96267  0.85781  0.03467  Biso   1.000  C
  C739     1.0000 0.94108  0.85557  0.06251  Biso   1.000  C
  H581     1.0000 0.95150  0.86980  0.08280  Biso   1.000  H
  C740     1.0000 0.90431  0.83249  0.06059  Biso   1.000  C
  H582     1.0000 0.88960  0.83100  0.07960  Biso   1.000  H
  C741     1.0000 0.88913  0.81164  0.03084  Biso   1.000  C
  H583     1.0000 0.86400  0.79590  0.02950  Biso   1.000  H
  C742     1.0000 0.91071  0.81388  0.00300  Biso   1.000  C
  H584     1.0000 0.90030  0.79960  0.98270  Biso   1.000  H
  N161     1.0000 0.02236  0.86964  0.00755  Biso   1.000  N
  N162     1.0000 0.06159  0.88920  0.01517  Biso   1.000  N
  C743     1.0000 0.06366  0.90768  0.04790  Biso   1.000  C
  H585     1.0000 0.08640  0.92280  0.05940  Biso   1.000  H
  C744     1.0000 0.02570  0.89954  0.06052  Biso   1.000  C
  H586     1.0000 0.01860  0.90830  0.08190  Biso   1.000  H
  C745     1.0000 0.00018  0.87603  0.03558  Biso   1.000  C
  C746     1.0000 0.09025  0.88990  0.99292  Biso   1.000  C
  H587     1.0000 0.08790  0.86210  0.97970  Biso   1.000  H
  H588     1.0000 0.11780  0.89020  0.00580  Biso   1.000  H
  C747     1.0000 0.12819  0.96303  0.89076  Biso   1.000  C
  C748     1.0000 0.15357  0.92738  0.88578  Biso   1.000  C
  H589     1.0000 0.16870  0.92700  0.86690  Biso   1.000  H
  C749     1.0000 0.15683  0.89226  0.90837  Biso   1.000  C
  H590     1.0000 0.17420  0.86790  0.90500  Biso   1.000  H
  C750     1.0000 0.13470  0.89280  0.93594  Biso   1.000  C
  H591     1.0000 0.13690  0.86880  0.95140  Biso   1.000  H
  C751     1.0000 0.10932  0.92846  0.94092  Biso   1.000  C
  C752     1.0000 0.10606  0.96358  0.91833  Biso   1.000  C
  C753     1.0000 0.08068  0.99924  0.92330  Biso   1.000  C
  H592     1.0000 0.07850  0.02320  0.90790  Biso   1.000  H
  C754     1.0000 0.05855  0.99978  0.95087  Biso   1.000  C
  H593     1.0000 0.04120  0.02420  0.95430  Biso   1.000  H
  C755     1.0000 0.06180  0.96467  0.97346  Biso   1.000  C
  H594     1.0000 0.04670  0.96500  0.99230  Biso   1.000  H
  C756     1.0000 0.08719  0.92901  0.96848  Biso   1.000  C
  N163     1.0000 0.31147  0.67145  0.74965  Biso   1.000  N
  C757     1.0000 0.31365  0.62723  0.75938  Biso   1.000  C
  C758     1.0000 0.28433  0.59731  0.74550  Biso   1.000  C
  H595     1.0000 0.28580  0.56710  0.75220  Biso   1.000  H
  C759     1.0000 0.25284  0.61162  0.72190  Biso   1.000  C
  H596     1.0000 0.23280  0.59120  0.71240  Biso   1.000  H
  C760     1.0000 0.25066  0.65584  0.71217  Biso   1.000  C
  H597     1.0000 0.22910  0.66560  0.69600  Biso   1.000  H
  C761     1.0000 0.27997  0.68576  0.72604  Biso   1.000  C
  H598     1.0000 0.27850  0.71600  0.71940  Biso   1.000  H
  N164     1.0000 0.36963  0.65022  0.79810  Biso   1.000  N
  N165     1.0000 0.40151  0.63049  0.82001  Biso   1.000  N
  C762     1.0000 0.39637  0.58380  0.81820  Biso   1.000  C
  H599     1.0000 0.41340  0.56240  0.83030  Biso   1.000  H
  C763     1.0000 0.36131  0.57468  0.79516  Biso   1.000  C
  H600     1.0000 0.35080  0.54610  0.78910  Biso   1.000  H
  C764     1.0000 0.34478  0.61573  0.78274  Biso   1.000  C
  C765     1.0000 0.42990  0.65470  0.84073  Biso   1.000  C
  H601     1.0000 0.43690  0.68170  0.82860  Biso   1.000  H
  H602     1.0000 0.45520  0.63690  0.84520  Biso   1.000  H
  N166     1.0000 0.55811  0.68920  0.07066  Biso   1.000  N
  C766     1.0000 0.55779  0.73524  0.06958  Biso   1.000  C
  C767     1.0000 0.58642  0.75924  0.09045  Biso   1.000  C
  H603     1.0000 0.58620  0.79070  0.08970  Biso   1.000  H
  C768     1.0000 0.61536  0.73721  0.11240  Biso   1.000  C
  H604     1.0000 0.63490  0.75360  0.12670  Biso   1.000  H
  C769     1.0000 0.61568  0.69117  0.11348  Biso   1.000  C
  H605     1.0000 0.63550  0.67610  0.12850  Biso   1.000  H
  C770     1.0000 0.58706  0.66717  0.09260  Biso   1.000  C
  H606     1.0000 0.58730  0.63570  0.09330  Biso   1.000  H
  N167     1.0000 0.49900  0.72660  0.02910  Biso   1.000  N
  N168     1.0000 0.47109  0.75426  0.00908  Biso   1.000  N
  C771     1.0000 0.48294  0.79897  0.01554  Biso   1.000  C
  H607     1.0000 0.46960  0.82440  0.00560  Biso   1.000  H
  C772     1.0000 0.51817  0.79894  0.03956  Biso   1.000  C
  H608     1.0000 0.53260  0.82440  0.04850  Biso   1.000  H
  C773     1.0000 0.52810  0.75421  0.04794  Biso   1.000  C
  C774     1.0000 0.44090  0.73890  0.98616  Biso   1.000  C
  H609     1.0000 0.41860  0.76120  0.98360  Biso   1.000  H
  H610     1.0000 0.42950  0.71160  0.99520  Biso   1.000  H
  C775     1.0000 0.41580  0.66841  0.87430  Biso   1.000  C
  C776     1.0000 0.37754  0.65461  0.88181  Biso   1.000  C
  H611     1.0000 0.36030  0.63780  0.86590  Biso   1.000  H
  C777     1.0000 0.36447  0.66543  0.91259  Biso   1.000  C
  H612     1.0000 0.33830  0.65600  0.91770  Biso   1.000  H
  C778     1.0000 0.38966  0.69005  0.93585  Biso   1.000  C
  H613     1.0000 0.38070  0.69740  0.95690  Biso   1.000  H
  C779     1.0000 0.42791  0.70385  0.92833  Biso   1.000  C
  C780     1.0000 0.44098  0.69303  0.89756  Biso   1.000  C
  C781     1.0000 0.47924  0.70683  0.89005  Biso   1.000  C
  H614     1.0000 0.48820  0.69940  0.86900  Biso   1.000  H
  C782     1.0000 0.50442  0.73145  0.91331  Biso   1.000  C
  H615     1.0000 0.53060  0.74090  0.90820  Biso   1.000  H
  C783     1.0000 0.49135  0.74227  0.94408  Biso   1.000  C
  H616     1.0000 0.50860  0.75910  0.96000  Biso   1.000  H
  C784     1.0000 0.45310  0.72847  0.95160  Biso   1.000  C
  N169     1.0000 0.39512  0.75433  0.80892  Biso   1.000  N
  C785     1.0000 0.37811  0.76998  0.83687  Biso   1.000  C
  C786     1.0000 0.40134  0.79602  0.86047  Biso   1.000  C
  H617     1.0000 0.38970  0.80670  0.87960  Biso   1.000  H
  C787     1.0000 0.44159  0.80641  0.85612  Biso   1.000  C
  H618     1.0000 0.45750  0.82420  0.87220  Biso   1.000  H
  C788     1.0000 0.45860  0.79077  0.82817  Biso   1.000  C
  H619     1.0000 0.48610  0.79790  0.82520  Biso   1.000  H
  C789     1.0000 0.43536  0.76473  0.80457  Biso   1.000  C
  H620     1.0000 0.44700  0.75400  0.78550  Biso   1.000  H
  N170     1.0000 0.31568  0.73572  0.81297  Biso   1.000  N
  N171     1.0000 0.27459  0.73274  0.82051  Biso   1.000  N
  C790     1.0000 0.27189  0.75528  0.85129  Biso   1.000  C
  H621     1.0000 0.24790  0.75850  0.86230  Biso   1.000  H
  C791     1.0000 0.31130  0.77218  0.86277  Biso   1.000  C
  H622     1.0000 0.31830  0.78870  0.88280  Biso   1.000  H
  C792     1.0000 0.33836  0.76009  0.83909  Biso   1.000  C
  C793     1.0000 0.24490  0.70650  0.80326  Biso   1.000  C
  H623     1.0000 0.24780  0.70840  0.77900  Biso   1.000  H
  H624     1.0000 0.21770  0.71870  0.80660  Biso   1.000  H
  N172     1.0000 0.04650  0.47656  0.84110  Biso   1.000  N
  C794     1.0000 0.05366  0.45030  0.81385  Biso   1.000  C
  C795     1.0000 0.02408  0.42040  0.80047  Biso   1.000  C
  H625     1.0000 0.02900  0.40250  0.78190  Biso   1.000  H
  C796     1.0000 0.98735  0.41670  0.81434  Biso   1.000  C
  H626     1.0000 0.96710  0.39620  0.80520  Biso   1.000  H
  C797     1.0000 0.98019  0.44290  0.84159  Biso   1.000  C
  H627     1.0000 0.95510  0.44030  0.85110  Biso   1.000  H
  C798     1.0000 0.00977  0.47280  0.85497  Biso   1.000  C
  H628     1.0000 0.00490  0.49080  0.87360  Biso   1.000  H
  N173     1.0000 0.11889  0.48531  0.81806  Biso   1.000  N
  N174     1.0000 0.15597  0.48027  0.80341  Biso   1.000  N
  C799     1.0000 0.15011  0.44634  0.77879  Biso   1.000  C
  H629     1.0000 0.16990  0.43610  0.76510  Biso   1.000  H
  C800     1.0000 0.10940  0.43041  0.77821  Biso   1.000  C
  H630     1.0000 0.09720  0.40760  0.76410  Biso   1.000  H
  C801     1.0000 0.09011  0.45450  0.80248  Biso   1.000  C
  C802     1.0000 0.18970  0.50640  0.81307  Biso   1.000  C
  H631     1.0000 0.21410  0.49170  0.80580  Biso   1.000  H
  H632     1.0000 0.19360  0.50780  0.83790  Biso   1.000  H
  C803     1.0000 0.24621  0.65726  0.81370  Biso   1.000  C
  C804     1.0000 0.27903  0.64299  0.83603  Biso   1.000  C
  H633     1.0000 0.29980  0.66330  0.84430  Biso   1.000  H
  C805     1.0000 0.28148  0.59894  0.84618  Biso   1.000  C
  H634     1.0000 0.30390  0.58920  0.86140  Biso   1.000  H
  C806     1.0000 0.25112  0.56916  0.83401  Biso   1.000  C
  H635     1.0000 0.25280  0.53910  0.84100  Biso   1.000  H
  C807     1.0000 0.21830  0.58343  0.81169  Biso   1.000  C
  C808     1.0000 0.21584  0.62749  0.80153  Biso   1.000  C
  C809     1.0000 0.18302  0.64176  0.77921  Biso   1.000  C
  H636     1.0000 0.18130  0.67190  0.77230  Biso   1.000  H
  C810     1.0000 0.15266  0.61199  0.76704  Biso   1.000  C
  H637     1.0000 0.13020  0.62170  0.75180  Biso   1.000  H
  C811     1.0000 0.15511  0.56793  0.77720  Biso   1.000  C
  H638     1.0000 0.13440  0.54760  0.76890  Biso   1.000  H
  C812     1.0000 0.18793  0.55366  0.79952  Biso   1.000  C
  N175     1.0000 0.38056  0.03783  0.10759  Biso   1.000  N
  C813     1.0000 0.39664  0.03908  0.07698  Biso   1.000  C
  C814     1.0000 0.38626  0.07351  0.05458  Biso   1.000  C
  H639     1.0000 0.39730  0.07440  0.03370  Biso   1.000  H
  C815     1.0000 0.35980  0.10668  0.06279  Biso   1.000  C
  H640     1.0000 0.35270  0.13020  0.04750  Biso   1.000  H
  C816     1.0000 0.34372  0.10542  0.09340  Biso   1.000  C
  H641     1.0000 0.32560  0.12810  0.09900  Biso   1.000  H
  C817     1.0000 0.35410  0.07100  0.11580  Biso   1.000  C
  H642     1.0000 0.34310  0.07010  0.13670  Biso   1.000  H
  N176     1.0000 0.43130  0.97236  0.09499  Biso   1.000  N
  N177     1.0000 0.46191  0.94455  0.08390  Biso   1.000  N
  C818     1.0000 0.47235  0.96160  0.05296  Biso   1.000  C
  H643     1.0000 0.49200  0.94950  0.03990  Biso   1.000  H
  C819     1.0000 0.44819  0.99995  0.04493  Biso   1.000  C
  H644     1.0000 0.44890  0.01800  0.02560  Biso   1.000  H
  C820     1.0000 0.42282  0.00660  0.07091  Biso   1.000  C
  C821     1.0000 0.47510  0.90610  0.09947  Biso   1.000  C
  H645     1.0000 0.47490  0.90990  0.12400  Biso   1.000  H
  H646     1.0000 0.50390  0.90100  0.09530  Biso   1.000  H
  N178     1.0000 0.53373  0.59305  0.05072  Biso   1.000  N
  C822     1.0000 0.51869  0.57800  0.07973  Biso   1.000  C
  C823     1.0000 0.53285  0.53831  0.09434  Biso   1.000  C
  H647     1.0000 0.52260  0.52800  0.11420  Biso   1.000  H
  C824     1.0000 0.56204  0.51368  0.07994  Biso   1.000  C
  H648     1.0000 0.57170  0.48660  0.08990  Biso   1.000  H
  C825     1.0000 0.57707  0.52874  0.05093  Biso   1.000  C
  H649     1.0000 0.59700  0.51190  0.04110  Biso   1.000  H
  C826     1.0000 0.56292  0.56842  0.03632  Biso   1.000  C
  H650     1.0000 0.57320  0.57870  0.01650  Biso   1.000  H
  N179     1.0000 0.47738  0.64301  0.07567  Biso   1.000  N
  N180     1.0000 0.44754  0.66316  0.09372  Biso   1.000  N
  C827     1.0000 0.44223  0.63588  0.12177  Biso   1.000  C
  H651     1.0000 0.42410  0.64140  0.13810  Biso   1.000  H
  C828     1.0000 0.46878  0.59887  0.12105  Biso   1.000  C
  H652     1.0000 0.47150  0.57530  0.13690  Biso   1.000  H
  C829     1.0000 0.49050  0.60327  0.09256  Biso   1.000  C
  C830     1.0000 0.42860  0.70260  0.08465  Biso   1.000  C
  H653     1.0000 0.40070  0.70220  0.09160  Biso   1.000  H
  H654     1.0000 0.42590  0.70520  0.05990  Biso   1.000  H
  C831     1.0000 0.45033  0.86481  0.08860  Biso   1.000  C
  C832     1.0000 0.41691  0.86980  0.06436  Biso   1.000  C
  H655     1.0000 0.40910  0.89850  0.05630  Biso   1.000  H
  C833     1.0000 0.39494  0.83282  0.05200  Biso   1.000  C
  H656     1.0000 0.37210  0.83620  0.03540  Biso   1.000  H
  C834     1.0000 0.40639  0.79084  0.06386  Biso   1.000  C
  H657     1.0000 0.39140  0.76560  0.05540  Biso   1.000  H
  C835     1.0000 0.43981  0.78585  0.08810  Biso   1.000  C
  C836     1.0000 0.46178  0.82283  0.10047  Biso   1.000  C
  C837     1.0000 0.49520  0.81784  0.12470  Biso   1.000  C
  H658     1.0000 0.51020  0.84310  0.13320  Biso   1.000  H
  C838     1.0000 0.50665  0.77586  0.13657  Biso   1.000  C
  H659     1.0000 0.52950  0.77250  0.15310  Biso   1.000  H
  C839     1.0000 0.48469  0.73888  0.12421  Biso   1.000  C
  H660     1.0000 0.49250  0.71020  0.13230  Biso   1.000  H
  C840     1.0000 0.45126  0.74387  0.09997  Biso   1.000  C
  Co21     1.0000 0.26598  0.45861  0.11576  Biso   1.000  Co
  Co22     1.0000 0.14439  0.78609  0.22376  Biso   1.000  Co
  Co23     1.0000 0.09873  0.51652  0.86114  Biso   1.000  Co
  Co24     1.0000 0.51310  0.65825  0.03503  Biso   1.000  Co
  N181     1.0000 0.29961  0.45698  0.07331  Biso   1.000  N
  C841     1.0000 0.29251  0.49292  0.05174  Biso   1.000  C
  C842     1.0000 0.31038  0.49430  0.02195  Biso   1.000  C
  H661     1.0000 0.30550  0.51890  0.00720  Biso   1.000  H
  C843     1.0000 0.33537  0.45975  0.01372  Biso   1.000  C
  H662     1.0000 0.34760  0.46070  0.99340  Biso   1.000  H
  C844     1.0000 0.34247  0.42382  0.03529  Biso   1.000  C
  H663     1.0000 0.35950  0.40020  0.02970  Biso   1.000  H
  C845     1.0000 0.32459  0.42243  0.06509  Biso   1.000  C
  H664     1.0000 0.32940  0.39790  0.07980  Biso   1.000  H
  N182     1.0000 0.24492  0.51793  0.08863  Biso   1.000  N
  N183     1.0000 0.21649  0.55322  0.08942  Biso   1.000  N
  C846     1.0000 0.21989  0.58073  0.06112  Biso   1.000  C
  H665     1.0000 0.20450  0.60680  0.05540  Biso   1.000  H
  C847     1.0000 0.25043  0.56243  0.04284  Biso   1.000  C
  H666     1.0000 0.25900  0.57410  0.02280  Biso   1.000  H
  C848     1.0000 0.26590  0.52362  0.05984  Biso   1.000  C
  C849     1.0000 0.19260  0.56100  0.11500  Biso   1.000  C
  H667     1.0000 0.16630  0.57400  0.10520  Biso   1.000  H
  H668     1.0000 0.18650  0.53230  0.12530  Biso   1.000  H
  N184     1.0000 0.09863  0.79967  0.25819  Biso   1.000  N
  C850     1.0000 0.09856  0.76935  0.28429  Biso   1.000  C
  C851     1.0000 0.07203  0.77509  0.30860  Biso   1.000  C
  H669     1.0000 0.07200  0.75440  0.32640  Biso   1.000  H
  C852     1.0000 0.04556  0.81110  0.30679  Biso   1.000  C
  H670     1.0000 0.02740  0.81510  0.32340  Biso   1.000  H
  C853     1.0000 0.04563  0.84145  0.28069  Biso   1.000  C
  H671     1.0000 0.02750  0.86610  0.27950  Biso   1.000  H
  C854     1.0000 0.07216  0.83572  0.25638  Biso   1.000  C
  H672     1.0000 0.07220  0.85640  0.23850  Biso   1.000  H
  N185     1.0000 0.15325  0.73469  0.25968  Biso   1.000  N
  N186     1.0000 0.17979  0.69798  0.26693  Biso   1.000  N
  C855     1.0000 0.16890  0.67712  0.29641  Biso   1.000  C
  H673     1.0000 0.18160  0.65170  0.30690  Biso   1.000  H
  C856     1.0000 0.13561  0.70093  0.30738  Biso   1.000  C
  H674     1.0000 0.12220  0.69420  0.32650  Biso   1.000  H
  C857     1.0000 0.12594  0.73652  0.28468  Biso   1.000  C
  C858     1.0000 0.20580  0.68350  0.24447  Biso   1.000  C
  H675     1.0000 0.21650  0.70970  0.23340  Biso   1.000  H
  H676     1.0000 0.22940  0.66840  0.25720  Biso   1.000  H
  C859     1.0000 0.21212  0.59193  0.14263  Biso   1.000  C
  C860     1.0000 0.25271  0.60445  0.14201  Biso   1.000  C
  H677     1.0000 0.26780  0.59360  0.12490  Biso   1.000  H
  C861     1.0000 0.27125  0.63282  0.16649  Biso   1.000  C
  H678     1.0000 0.29900  0.64140  0.16610  Biso   1.000  H
  C862     1.0000 0.24920  0.64869  0.19160  Biso   1.000  C
  H679     1.0000 0.26190  0.66810  0.20830  Biso   1.000  H
  C863     1.0000 0.20861  0.63617  0.19222  Biso   1.000  C
  C864     1.0000 0.19007  0.60780  0.16773  Biso   1.000  C
  C865     1.0000 0.14948  0.59528  0.16835  Biso   1.000  C
  H680     1.0000 0.13680  0.57590  0.15160  Biso   1.000  H
  C866     1.0000 0.12743  0.61115  0.19346  Biso   1.000  C
  H681     1.0000 0.09970  0.60260  0.19390  Biso   1.000  H
  C867     1.0000 0.14596  0.63953  0.21794  Biso   1.000  C
  H682     1.0000 0.13090  0.65040  0.23510  Biso   1.000  H
  C868     1.0000 0.18655  0.65204  0.21732  Biso   1.000  C
  N187     1.0000 0.29087  0.39681  0.13630  Biso   1.000  N
  C869     1.0000 0.26798  0.35960  0.12584  Biso   1.000  C
  C870     1.0000 0.28264  0.31754  0.13477  Biso   1.000  C
  H683     1.0000 0.26700  0.29210  0.12760  Biso   1.000  H
  C871     1.0000 0.32018  0.31270  0.15416  Biso   1.000  C
  H684     1.0000 0.33020  0.28400  0.16030  Biso   1.000  H
  C872     1.0000 0.34306  0.34991  0.16463  Biso   1.000  C
  H685     1.0000 0.36870  0.34660  0.17790  Biso   1.000  H
  C873     1.0000 0.32841  0.39197  0.15570  Biso   1.000  C
  H686     1.0000 0.34410  0.41740  0.16280  Biso   1.000  H
  N188     1.0000 0.22474  0.41018  0.09357  Biso   1.000  N
  N189     1.0000 0.18533  0.41045  0.07497  Biso   1.000  N
  C874     1.0000 0.16862  0.36718  0.07631  Biso   1.000  C
  H687     1.0000 0.14260  0.35790  0.06600  Biso   1.000  H
  C875     1.0000 0.19770  0.34018  0.09574  Biso   1.000  C
  H688     1.0000 0.19450  0.30970  0.10070  Biso   1.000  H
  C876     1.0000 0.23238  0.36675  0.10641  Biso   1.000  C
  C877     1.0000 0.17220  0.44580  0.05525  Biso   1.000  C
  H689     1.0000 0.14210  0.44390  0.05010  Biso   1.000  H
  H690     1.0000 0.17840  0.47330  0.06830  Biso   1.000  H
  N190     1.0000 0.08021  0.57460  0.83425  Biso   1.000  N
  C878     1.0000 0.10383  0.61199  0.84272  Biso   1.000  C
  C879     1.0000 0.09206  0.65286  0.82883  Biso   1.000  C
  H691     1.0000 0.10820  0.67840  0.83460  Biso   1.000  H
  C880     1.0000 0.05666  0.65634  0.80648  Biso   1.000  C
  H692     1.0000 0.04860  0.68430  0.79700  Biso   1.000  H
  C881     1.0000 0.03304  0.61895  0.79802  Biso   1.000  C
  H693     1.0000 0.00880  0.62130  0.78270  Biso   1.000  H
  C882     1.0000 0.04481  0.57808  0.81190  Biso   1.000  C
  H694     1.0000 0.02870  0.55250  0.80610  Biso   1.000  H
  N191     1.0000 0.14797  0.56163  0.87576  Biso   1.000  N
  N192     1.0000 0.18693  0.56272  0.89506  Biso   1.000  N
  C883     1.0000 0.20176  0.60691  0.89493  Biso   1.000  C
  H695     1.0000 0.22720  0.61710  0.90590  Biso   1.000  H
  C884     1.0000 0.17196  0.63312  0.87555  Biso   1.000  C
  H696     1.0000 0.17390  0.66400  0.87130  Biso   1.000  H
  C885     1.0000 0.13872  0.60513  0.86371  Biso   1.000  C
  C886     1.0000 0.20320  0.52820  0.91465  Biso   1.000  C
  H697     1.0000 0.19650  0.50020  0.90250  Biso   1.000  H
  H698     1.0000 0.23340  0.53130  0.91750  Biso   1.000  H
  C887     1.0000 0.19102  0.44984  0.02190  Biso   1.000  C
  C888     1.0000 0.21717  0.41694  0.01273  Biso   1.000  C
  H699     1.0000 0.22370  0.39240  0.02720  Biso   1.000  H
  C889     1.0000 0.23378  0.41999  0.98242  Biso   1.000  C
  H700     1.0000 0.25170  0.39750  0.97610  Biso   1.000  H
  C890     1.0000 0.22424  0.45593  0.96129  Biso   1.000  C
  H701     1.0000 0.23560  0.45800  0.94060  Biso   1.000  H
  C891     1.0000 0.19809  0.48883  0.97046  Biso   1.000  C
  C892     1.0000 0.18148  0.48578  0.00077  Biso   1.000  C
  C893     1.0000 0.15533  0.51868  0.00995  Biso   1.000  C
  H702     1.0000 0.14400  0.51660  0.03070  Biso   1.000  H
  C894     1.0000 0.14578  0.55463  0.98882  Biso   1.000  C
  H703     1.0000 0.12790  0.57710  0.99510  Biso   1.000  H
  C895     1.0000 0.16239  0.55767  0.95851  Biso   1.000  C
  H704     1.0000 0.15590  0.58220  0.94410  Biso   1.000  H
  C896     1.0000 0.18854  0.52478  0.94933  Biso   1.000  C
  N193     1.0000 0.22867  0.46796  0.15540  Biso   1.000  N
  C897     1.0000 0.24637  0.49371  0.18193  Biso   1.000  C
  C898     1.0000 0.22363  0.50572  0.20770  Biso   1.000  C
  H705     1.0000 0.23570  0.52330  0.22580  Biso   1.000  H
  C899     1.0000 0.18319  0.49198  0.20695  Biso   1.000  C
  H706     1.0000 0.16760  0.50020  0.22460  Biso   1.000  H
  C900     1.0000 0.16549  0.46623  0.18043  Biso   1.000  C
  H707     1.0000 0.13780  0.45680  0.17990  Biso   1.000  H
  C901     1.0000 0.18823  0.45422  0.15466  Biso   1.000  C
  H708     1.0000 0.17610  0.43660  0.13650  Biso   1.000  H
  N194     1.0000 0.30550  0.49249  0.15273  Biso   1.000  N
  N195     1.0000 0.34762  0.50370  0.15884  Biso   1.000  N
  C902     1.0000 0.35486  0.52170  0.19171  Biso   1.000  C
  H709     1.0000 0.38040  0.53200  0.20230  Biso   1.000  H
  C903     1.0000 0.31721  0.52160  0.20592  Biso   1.000  C
  H710     1.0000 0.31310  0.53180  0.22770  Biso   1.000  H
  C904     1.0000 0.28670  0.50356  0.18182  Biso   1.000  C
  C905     1.0000 0.37350  0.49950  0.13480  Biso   1.000  C
  H711     1.0000 0.40190  0.49740  0.14610  Biso   1.000  H
  H712     1.0000 0.36730  0.47140  0.12260  Biso   1.000  H
  N196     1.0000 0.55252  0.66304  0.99509  Biso   1.000  N
  C906     1.0000 0.53733  0.64219  0.96533  Biso   1.000  C
  C907     1.0000 0.55892  0.64443  0.93749  Biso   1.000  C
  H713     1.0000 0.54850  0.63020  0.91720  Biso   1.000  H
  C908     1.0000 0.59569  0.66751  0.93941  Biso   1.000  C
  H714     1.0000 0.61040  0.66900  0.92040  Biso   1.000  H
  C909     1.0000 0.61087  0.68836  0.96916  Biso   1.000  C
  H715     1.0000 0.63600  0.70410  0.97050  Biso   1.000  H
  C910     1.0000 0.58929  0.68612  0.99700  Biso   1.000  C
  H716     1.0000 0.59970  0.70040  0.01730  Biso   1.000  H
  N197     1.0000 0.47764  0.63036  0.99245  Biso   1.000  N
  N198     1.0000 0.43841  0.61080  0.98483  Biso   1.000  N
  C911     1.0000 0.43634  0.59232  0.95210  Biso   1.000  C
  H717     1.0000 0.41360  0.57720  0.94060  Biso   1.000  H
  C912     1.0000 0.47430  0.60046  0.93948  Biso   1.000  C
  H718     1.0000 0.48140  0.59170  0.91810  Biso   1.000  H
  C913     1.0000 0.49982  0.62397  0.96442  Biso   1.000  C
  C914     1.0000 0.40975  0.61010  0.00708  Biso   1.000  C
  H719     1.0000 0.41210  0.63790  0.02030  Biso   1.000  H
  H720     1.0000 0.38220  0.60980  0.99420  Biso   1.000  H
  C915     1.0000 0.37181  0.53697  0.10924  Biso   1.000  C
  C916     1.0000 0.34643  0.57262  0.11422  Biso   1.000  C
  H721     1.0000 0.33130  0.57300  0.13310  Biso   1.000  H
  C917     1.0000 0.34317  0.60774  0.09163  Biso   1.000  C
  H722     1.0000 0.32580  0.63210  0.09500  Biso   1.000  H
  C918     1.0000 0.36530  0.60720  0.06406  Biso   1.000  C
  H723     1.0000 0.36310  0.63120  0.04860  Biso   1.000  H
  C919     1.0000 0.39068  0.57154  0.05908  Biso   1.000  C
  C920     1.0000 0.39394  0.53642  0.08167  Biso   1.000  C
  C921     1.0000 0.41932  0.50076  0.07670  Biso   1.000  C
  H724     1.0000 0.42150  0.47680  0.09210  Biso   1.000  H
  C922     1.0000 0.44145  0.50022  0.04913  Biso   1.000  C
  H725     1.0000 0.45880  0.47580  0.04570  Biso   1.000  H
  C923     1.0000 0.43820  0.53533  0.02654  Biso   1.000  C
  H726     1.0000 0.45330  0.53500  0.00770  Biso   1.000  H
  C924     1.0000 0.41281  0.57099  0.03152  Biso   1.000  C
  N199     1.0000 0.18853  0.82855  0.25035  Biso   1.000  N
  C925     1.0000 0.18635  0.87277  0.24062  Biso   1.000  C
  C926     1.0000 0.21567  0.90269  0.25450  Biso   1.000  C
  H727     1.0000 0.21420  0.93290  0.24780  Biso   1.000  H
  C927     1.0000 0.24716  0.88838  0.27810  Biso   1.000  C
  H728     1.0000 0.26720  0.90880  0.28760  Biso   1.000  H
  C928     1.0000 0.24934  0.84416  0.28783  Biso   1.000  C
  H729     1.0000 0.27090  0.83440  0.30400  Biso   1.000  H
  C929     1.0000 0.22003  0.81424  0.27396  Biso   1.000  C
  H730     1.0000 0.22150  0.78400  0.28060  Biso   1.000  H
  N200     1.0000 0.13037  0.84978  0.20190  Biso   1.000  N
  N201     1.0000 0.09849  0.86951  0.17999  Biso   1.000  N
  C930     1.0000 0.10363  0.91620  0.18180  Biso   1.000  C
  H731     1.0000 0.08660  0.93760  0.16970  Biso   1.000  H
  C931     1.0000 0.13869  0.92532  0.20484  Biso   1.000  C
  H732     1.0000 0.14920  0.95390  0.21090  Biso   1.000  H
  C932     1.0000 0.15522  0.88427  0.21726  Biso   1.000  C
  C933     1.0000 0.07010  0.84530  0.15927  Biso   1.000  C
  H733     1.0000 0.06310  0.81830  0.17140  Biso   1.000  H
  H734     1.0000 0.04480  0.86310  0.15480  Biso   1.000  H
  N202     1.0000 0.94189  0.81080  0.92934  Biso   1.000  N
  C934     1.0000 0.94221  0.76476  0.93042  Biso   1.000  C
  C935     1.0000 0.91358  0.74076  0.90955  Biso   1.000  C
  H735     1.0000 0.91380  0.70930  0.91030  Biso   1.000  H
  C936     1.0000 0.88464  0.76279  0.88760  Biso   1.000  C
  H736     1.0000 0.86510  0.74640  0.87330  Biso   1.000  H
  C937     1.0000 0.88432  0.80883  0.88652  Biso   1.000  C
  H737     1.0000 0.86450  0.82390  0.87150  Biso   1.000  H
  C938     1.0000 0.91294  0.83283  0.90740  Biso   1.000  C
  H738     1.0000 0.91270  0.86430  0.90670  Biso   1.000  H
  N203     1.0000 0.00100  0.77340  0.97090  Biso   1.000  N
  N204     1.0000 0.02891  0.74574  0.99092  Biso   1.000  N
  C939     1.0000 0.01706  0.70103  0.98446  Biso   1.000  C
  H739     1.0000 0.03040  0.67560  0.99440  Biso   1.000  H
  C940     1.0000 0.98183  0.70106  0.96044  Biso   1.000  C
  H740     1.0000 0.96740  0.67560  0.95150  Biso   1.000  H
  C941     1.0000 0.97190  0.74579  0.95206  Biso   1.000  C
  C942     1.0000 0.05910  0.76110  0.01384  Biso   1.000  C
  H741     1.0000 0.08140  0.73880  0.01640  Biso   1.000  H
  H742     1.0000 0.07050  0.78840  0.00480  Biso   1.000  H
  C943     1.0000 0.08420  0.83159  0.12570  Biso   1.000  C
  C944     1.0000 0.12246  0.84539  0.11819  Biso   1.000  C
  H743     1.0000 0.13970  0.86220  0.13410  Biso   1.000  H
  C945     1.0000 0.13553  0.83457  0.08741  Biso   1.000  C
  H744     1.0000 0.16170  0.84400  0.08230  Biso   1.000  H
  C946     1.0000 0.11034  0.80995  0.06415  Biso   1.000  C
  H745     1.0000 0.11930  0.80260  0.04310  Biso   1.000  H
  C947     1.0000 0.07209  0.79615  0.07167  Biso   1.000  C
  C948     1.0000 0.05902  0.80697  0.10244  Biso   1.000  C
  C949     1.0000 0.02076  0.79317  0.10995  Biso   1.000  C
  H746     1.0000 0.01180  0.80060  0.13100  Biso   1.000  H
  C950     1.0000 0.99558  0.76855  0.08669  Biso   1.000  C
  H747     1.0000 0.96940  0.75910  0.09180  Biso   1.000  H
  C951     1.0000 0.00865  0.75773  0.05592  Biso   1.000  C
  H748     1.0000 0.99140  0.74090  0.04000  Biso   1.000  H
  C952     1.0000 0.04690  0.77153  0.04840  Biso   1.000  C
  N205     1.0000 0.10488  0.74567  0.19108  Biso   1.000  N
  C953     1.0000 0.12189  0.73002  0.16313  Biso   1.000  C
  C954     1.0000 0.09866  0.70398  0.13953  Biso   1.000  C
  H749     1.0000 0.11030  0.69330  0.12040  Biso   1.000  H
  C955     1.0000 0.05841  0.69359  0.14388  Biso   1.000  C
  H750     1.0000 0.04250  0.67580  0.12780  Biso   1.000  H
  C956     1.0000 0.04140  0.70923  0.17183  Biso   1.000  C
  H751     1.0000 0.01390  0.70210  0.17480  Biso   1.000  H
  C957     1.0000 0.06464  0.73527  0.19543  Biso   1.000  C
  H752     1.0000 0.05300  0.74600  0.21450  Biso   1.000  H
  N206     1.0000 0.18432  0.76428  0.18703  Biso   1.000  N
  N207     1.0000 0.22541  0.76726  0.17949  Biso   1.000  N
  C958     1.0000 0.22811  0.74472  0.14871  Biso   1.000  C
  H753     1.0000 0.25210  0.74150  0.13770  Biso   1.000  H
  C959     1.0000 0.18870  0.72782  0.13723  Biso   1.000  C
  H754     1.0000 0.18170  0.71130  0.11720  Biso   1.000  H
  C960     1.0000 0.16164  0.73991  0.16091  Biso   1.000  C
  C961     1.0000 0.25510  0.79350  0.19674  Biso   1.000  C
  H755     1.0000 0.25220  0.79160  0.22100  Biso   1.000  H
  H756     1.0000 0.28230  0.78130  0.19340  Biso   1.000  H
  N208     1.0000 0.45350  0.02344  0.15890  Biso   1.000  N
  C962     1.0000 0.44634  0.04970  0.18615  Biso   1.000  C
  C963     1.0000 0.47592  0.07960  0.19953  Biso   1.000  C
  H757     1.0000 0.47100  0.09750  0.21810  Biso   1.000  H
  C964     1.0000 0.51265  0.08330  0.18566  Biso   1.000  C
  H758     1.0000 0.53290  0.10380  0.19480  Biso   1.000  H
  C965     1.0000 0.51981  0.05710  0.15841  Biso   1.000  C
  H759     1.0000 0.54490  0.05970  0.14890  Biso   1.000  H
  C966     1.0000 0.49023  0.02720  0.14503  Biso   1.000  C
  H760     1.0000 0.49510  0.00920  0.12640  Biso   1.000  H
  N209     1.0000 0.38111  0.01469  0.18194  Biso   1.000  N
  N210     1.0000 0.34403  0.01973  0.19659  Biso   1.000  N
  C967     1.0000 0.34989  0.05366  0.22121  Biso   1.000  C
  H761     1.0000 0.33010  0.06390  0.23490  Biso   1.000  H
  C968     1.0000 0.39060  0.06959  0.22179  Biso   1.000  C
  H762     1.0000 0.40280  0.09240  0.23590  Biso   1.000  H
  C969     1.0000 0.40989  0.04550  0.19752  Biso   1.000  C
  C970     1.0000 0.31030  0.99360  0.18693  Biso   1.000  C
  H763     1.0000 0.28590  0.00830  0.19420  Biso   1.000  H
  H764     1.0000 0.30640  0.99220  0.16210  Biso   1.000  H
  C971     1.0000 0.25379  0.84274  0.18630  Biso   1.000  C
  C972     1.0000 0.22097  0.85701  0.16397  Biso   1.000  C
  H765     1.0000 0.20020  0.83670  0.15570  Biso   1.000  H
  C973     1.0000 0.21852  0.90106  0.15382  Biso   1.000  C
  H766     1.0000 0.19610  0.91080  0.13860  Biso   1.000  H
  C974     1.0000 0.24888  0.93084  0.16599  Biso   1.000  C
  H767     1.0000 0.24720  0.96090  0.15900  Biso   1.000  H
  C975     1.0000 0.28170  0.91657  0.18831  Biso   1.000  C
  C976     1.0000 0.28416  0.87251  0.19847  Biso   1.000  C
  C977     1.0000 0.31698  0.85824  0.22079  Biso   1.000  C
  H768     1.0000 0.31870  0.82810  0.22770  Biso   1.000  H
  C978     1.0000 0.34734  0.88801  0.23296  Biso   1.000  C
  H769     1.0000 0.36980  0.87830  0.24820  Biso   1.000  H
  C979     1.0000 0.34489  0.93207  0.22280  Biso   1.000  C
  H770     1.0000 0.36560  0.95240  0.23110  Biso   1.000  H
  C980     1.0000 0.31207  0.94634  0.20048  Biso   1.000  C
  N211     1.0000 0.11944  0.46217  0.89241  Biso   1.000  N
  C981     1.0000 0.10336  0.46092  0.92302  Biso   1.000  C
  C982     1.0000 0.11374  0.42649  0.94542  Biso   1.000  C
  H771     1.0000 0.10270  0.42560  0.96630  Biso   1.000  H
  C983     1.0000 0.14020  0.39332  0.93721  Biso   1.000  C
  H772     1.0000 0.14730  0.36980  0.95250  Biso   1.000  H
  C984     1.0000 0.15628  0.39458  0.90660  Biso   1.000  C
  H773     1.0000 0.17440  0.37190  0.90100  Biso   1.000  H
  C985     1.0000 0.14590  0.42900  0.88420  Biso   1.000  C
  H774     1.0000 0.15690  0.42990  0.86330  Biso   1.000  H
  N212     1.0000 0.06870  0.52764  0.90501  Biso   1.000  N
  N213     1.0000 0.03809  0.55545  0.91610  Biso   1.000  N
  C986     1.0000 0.02765  0.53840  0.94704  Biso   1.000  C
  H775     1.0000 0.00800  0.55050  0.96010  Biso   1.000  H
  C987     1.0000 0.05181  0.50005  0.95507  Biso   1.000  C
  H776     1.0000 0.05110  0.48200  0.97440  Biso   1.000  H
  C988     1.0000 0.07718  0.49340  0.92909  Biso   1.000  C
  C989     1.0000 0.02490  0.59390  0.90053  Biso   1.000  C
  H777     1.0000 0.02510  0.59010  0.87600  Biso   1.000  H
  H778     1.0000 0.99610  0.59900  0.90470  Biso   1.000  H
  N214     1.0000 0.96627  0.90695  0.94928  Biso   1.000  N
  C990     1.0000 0.98131  0.92200  0.92027  Biso   1.000  C
  C991     1.0000 0.96715  0.96169  0.90566  Biso   1.000  C
  H779     1.0000 0.97740  0.97200  0.88580  Biso   1.000  H
  C992     1.0000 0.93796  0.98632  0.92006  Biso   1.000  C
  H780     1.0000 0.92830  0.01340  0.91010  Biso   1.000  H
  C993     1.0000 0.92293  0.97126  0.94907  Biso   1.000  C
  H781     1.0000 0.90300  0.98810  0.95890  Biso   1.000  H
  C994     1.0000 0.93708  0.93158  0.96368  Biso   1.000  C
  H782     1.0000 0.92680  0.92130  0.98350  Biso   1.000  H
  N215     1.0000 0.02262  0.85699  0.92433  Biso   1.000  N
  N216     1.0000 0.05246  0.83684  0.90628  Biso   1.000  N
  C995     1.0000 0.05777  0.86412  0.87823  Biso   1.000  C
  H783     1.0000 0.07590  0.85860  0.86190  Biso   1.000  H
  C996     1.0000 0.03122  0.90113  0.87895  Biso   1.000  C
  H784     1.0000 0.02850  0.92470  0.86310  Biso   1.000  H
  C997     1.0000 0.00950  0.89673  0.90744  Biso   1.000  C
  C998     1.0000 0.07140  0.79740  0.91535  Biso   1.000  C
  H785     1.0000 0.09930  0.79780  0.90840  Biso   1.000  H
  H786     1.0000 0.07410  0.79480  0.94010  Biso   1.000  H
  C999     1.0000 0.04967  0.63519  0.91140  Biso   1.000  C
  C1000    1.0000 0.08309  0.63020  0.93564  Biso   1.000  C
  H787     1.0000 0.09090  0.60150  0.94370  Biso   1.000  H
  C1001    1.0000 0.10506  0.66718  0.94800  Biso   1.000  C
  H788     1.0000 0.12790  0.66380  0.96460  Biso   1.000  H
  C1002    1.0000 0.09361  0.70916  0.93614  Biso   1.000  C
  H789     1.0000 0.10860  0.73440  0.94460  Biso   1.000  H
  C1003    1.0000 0.06019  0.71415  0.91190  Biso   1.000  C
  C1004    1.0000 0.03822  0.67717  0.89953  Biso   1.000  C
  C1005    1.0000 0.00480  0.68216  0.87530  Biso   1.000  C
  H790     1.0000 0.98980  0.65690  0.86680  Biso   1.000  H
  C1006    1.0000 0.99335  0.72414  0.86343  Biso   1.000  C
  H791     1.0000 0.97050  0.72750  0.84690  Biso   1.000  H
  C1007    1.0000 0.01531  0.76112  0.87579  Biso   1.000  C
  H792     1.0000 0.00750  0.78980  0.86770  Biso   1.000  H
  C1008    1.0000 0.04874  0.75613  0.90003  Biso   1.000  C
  Co25     1.0000 0.73402  0.54139  0.88424  Biso   1.000  Co
  Co26     1.0000 0.85561  0.21391  0.77624  Biso   1.000  Co
  Co27     1.0000 0.90127  0.48348  0.13886  Biso   1.000  Co
  Co28     1.0000 0.48690  0.34175  0.96497  Biso   1.000  Co
  N217     1.0000 0.70039  0.54302  0.92669  Biso   1.000  N
  C1009    1.0000 0.70749  0.50708  0.94826  Biso   1.000  C
  C1010    1.0000 0.68962  0.50570  0.97805  Biso   1.000  C
  H793     1.0000 0.69450  0.48110  0.99280  Biso   1.000  H
  C1011    1.0000 0.66463  0.54025  0.98628  Biso   1.000  C
  H794     1.0000 0.65240  0.53930  0.00660  Biso   1.000  H
  C1012    1.0000 0.65753  0.57618  0.96471  Biso   1.000  C
  H795     1.0000 0.64050  0.59980  0.97030  Biso   1.000  H
  C1013    1.0000 0.67541  0.57757  0.93491  Biso   1.000  C
  H796     1.0000 0.67060  0.60210  0.92020  Biso   1.000  H
  N218     1.0000 0.75508  0.48207  0.91137  Biso   1.000  N
  N219     1.0000 0.78351  0.44678  0.91058  Biso   1.000  N
  C1014    1.0000 0.78011  0.41927  0.93888  Biso   1.000  C
  H797     1.0000 0.79550  0.39320  0.94460  Biso   1.000  H
  C1015    1.0000 0.74957  0.43757  0.95716  Biso   1.000  C
  H798     1.0000 0.74100  0.42590  0.97720  Biso   1.000  H
  C1016    1.0000 0.73410  0.47638  0.94016  Biso   1.000  C
  C1017    1.0000 0.80740  0.43900  0.88500  Biso   1.000  C
  H799     1.0000 0.83370  0.42600  0.89480  Biso   1.000  H
  H800     1.0000 0.81350  0.46770  0.87470  Biso   1.000  H
  N220     1.0000 0.90137  0.20033  0.74181  Biso   1.000  N
  C1018    1.0000 0.90144  0.23065  0.71571  Biso   1.000  C
  C1019    1.0000 0.92797  0.22491  0.69140  Biso   1.000  C
  H801     1.0000 0.92800  0.24560  0.67360  Biso   1.000  H
  C1020    1.0000 0.95444  0.18890  0.69321  Biso   1.000  C
  H802     1.0000 0.97260  0.18490  0.67660  Biso   1.000  H
  C1021    1.0000 0.95437  0.15855  0.71931  Biso   1.000  C
  H803     1.0000 0.97250  0.13390  0.72050  Biso   1.000  H
  C1022    1.0000 0.92784  0.16428  0.74362  Biso   1.000  C
  H804     1.0000 0.92780  0.14360  0.76150  Biso   1.000  H
  N221     1.0000 0.84675  0.26531  0.74032  Biso   1.000  N
  N222     1.0000 0.82021  0.30202  0.73307  Biso   1.000  N
  C1023    1.0000 0.83110  0.32288  0.70359  Biso   1.000  C
  H805     1.0000 0.81840  0.34830  0.69310  Biso   1.000  H
  C1024    1.0000 0.86439  0.29907  0.69262  Biso   1.000  C
  H806     1.0000 0.87780  0.30580  0.67350  Biso   1.000  H
  C1025    1.0000 0.87406  0.26348  0.71532  Biso   1.000  C
  C1026    1.0000 0.79420  0.31650  0.75553  Biso   1.000  C
  H807     1.0000 0.78350  0.29030  0.76660  Biso   1.000  H
  H808     1.0000 0.77060  0.33160  0.74280  Biso   1.000  H
  C1027    1.0000 0.78788  0.40807  0.85737  Biso   1.000  C
  C1028    1.0000 0.74729  0.39555  0.85799  Biso   1.000  C
  H809     1.0000 0.73220  0.40640  0.87510  Biso   1.000  H
  C1029    1.0000 0.72875  0.36718  0.83351  Biso   1.000  C
  H810     1.0000 0.70100  0.35860  0.83390  Biso   1.000  H
  C1030    1.0000 0.75080  0.35131  0.80840  Biso   1.000  C
  H811     1.0000 0.73810  0.33190  0.79170  Biso   1.000  H
  C1031    1.0000 0.79139  0.36383  0.80778  Biso   1.000  C
  C1032    1.0000 0.80993  0.39220  0.83227  Biso   1.000  C
  C1033    1.0000 0.85052  0.40472  0.83165  Biso   1.000  C
  H812     1.0000 0.86320  0.42410  0.84840  Biso   1.000  H
  C1034    1.0000 0.87257  0.38885  0.80654  Biso   1.000  C
  H813     1.0000 0.90030  0.39740  0.80610  Biso   1.000  H
  C1035    1.0000 0.85404  0.36047  0.78206  Biso   1.000  C
  H814     1.0000 0.86910  0.34960  0.76490  Biso   1.000  H
  C1036    1.0000 0.81345  0.34796  0.78268  Biso   1.000  C
  N223     1.0000 0.70913  0.60319  0.86370  Biso   1.000  N
  C1037    1.0000 0.73202  0.64040  0.87416  Biso   1.000  C
  C1038    1.0000 0.71736  0.68246  0.86523  Biso   1.000  C
  H815     1.0000 0.73300  0.70790  0.87240  Biso   1.000  H
  C1039    1.0000 0.67982  0.68730  0.84584  Biso   1.000  C
  H816     1.0000 0.66980  0.71600  0.83970  Biso   1.000  H
  C1040    1.0000 0.65694  0.65009  0.83537  Biso   1.000  C
  H817     1.0000 0.63130  0.65340  0.82210  Biso   1.000  H
  C1041    1.0000 0.67159  0.60803  0.84430  Biso   1.000  C
  H818     1.0000 0.65590  0.58260  0.83720  Biso   1.000  H
  N224     1.0000 0.77526  0.58982  0.90643  Biso   1.000  N
  N225     1.0000 0.81467  0.58955  0.92503  Biso   1.000  N
  C1042    1.0000 0.83138  0.63282  0.92369  Biso   1.000  C
  H819     1.0000 0.85740  0.64210  0.93400  Biso   1.000  H
  C1043    1.0000 0.80230  0.65982  0.90426  Biso   1.000  C
  H820     1.0000 0.80550  0.69030  0.89930  Biso   1.000  H
  C1044    1.0000 0.76762  0.63325  0.89359  Biso   1.000  C
  C1045    1.0000 0.82780  0.55420  0.94475  Biso   1.000  C
  H821     1.0000 0.85790  0.55610  0.94990  Biso   1.000  H
  H822     1.0000 0.82160  0.52670  0.93170  Biso   1.000  H
  N226     1.0000 0.91979  0.42540  0.16575  Biso   1.000  N
  C1046    1.0000 0.89617  0.38801  0.15728  Biso   1.000  C
  C1047    1.0000 0.90794  0.34714  0.17117  Biso   1.000  C
  H823     1.0000 0.89180  0.32160  0.16540  Biso   1.000  H
  C1048    1.0000 0.94334  0.34366  0.19352  Biso   1.000  C
  H824     1.0000 0.95140  0.31570  0.20300  Biso   1.000  H
  C1049    1.0000 0.96696  0.38105  0.20198  Biso   1.000  C
  H825     1.0000 0.99120  0.37870  0.21730  Biso   1.000  H
  C1050    1.0000 0.95519  0.42192  0.18810  Biso   1.000  C
  H826     1.0000 0.97130  0.44750  0.19390  Biso   1.000  H
  N227     1.0000 0.85203  0.43837  0.12424  Biso   1.000  N
  N228     1.0000 0.81307  0.43728  0.10494  Biso   1.000  N
  C1051    1.0000 0.79824  0.39309  0.10507  Biso   1.000  C
  H827     1.0000 0.77280  0.38290  0.09410  Biso   1.000  H
  C1052    1.0000 0.82804  0.36688  0.12445  Biso   1.000  C
  H828     1.0000 0.82610  0.33600  0.12870  Biso   1.000  H
  C1053    1.0000 0.86128  0.39487  0.13629  Biso   1.000  C
  C1054    1.0000 0.79680  0.47180  0.08535  Biso   1.000  C
  H829     1.0000 0.80350  0.49980  0.09750  Biso   1.000  H
  H830     1.0000 0.76660  0.46870  0.08250  Biso   1.000  H
  C1055    1.0000 0.80898  0.55016  0.97810  Biso   1.000  C
  C1056    1.0000 0.78283  0.58306  0.98727  Biso   1.000  C
  H831     1.0000 0.77630  0.60760  0.97280  Biso   1.000  H
  C1057    1.0000 0.76622  0.58001  0.01758  Biso   1.000  C
  H832     1.0000 0.74830  0.60250  0.02390  Biso   1.000  H
  C1058    1.0000 0.77576  0.54407  0.03871  Biso   1.000  C
  H833     1.0000 0.76440  0.54200  0.05940  Biso   1.000  H
  C1059    1.0000 0.80191  0.51117  0.02954  Biso   1.000  C
  C1060    1.0000 0.81852  0.51422  0.99923  Biso   1.000  C
  C1061    1.0000 0.84467  0.48132  0.99005  Biso   1.000  C
  H834     1.0000 0.85600  0.48340  0.96930  Biso   1.000  H
  C1062    1.0000 0.85422  0.44537  0.01118  Biso   1.000  C
  H835     1.0000 0.87210  0.42290  0.00490  Biso   1.000  H
  C1063    1.0000 0.83761  0.44233  0.04149  Biso   1.000  C
  H836     1.0000 0.84410  0.41780  0.05590  Biso   1.000  H
  C1064    1.0000 0.81146  0.47522  0.05067  Biso   1.000  C
  N229     1.0000 0.77133  0.53204  0.84460  Biso   1.000  N
  C1065    1.0000 0.75363  0.50629  0.81807  Biso   1.000  C
  C1066    1.0000 0.77637  0.49428  0.79230  Biso   1.000  C
  H837     1.0000 0.76430  0.47670  0.77420  Biso   1.000  H
  C1067    1.0000 0.81681  0.50802  0.79305  Biso   1.000  C
  H838     1.0000 0.83240  0.49980  0.77540  Biso   1.000  H
  C1068    1.0000 0.83451  0.53377  0.81957  Biso   1.000  C
  H839     1.0000 0.86220  0.54320  0.82010  Biso   1.000  H
  C1069    1.0000 0.81177  0.54578  0.84534  Biso   1.000  C
  H840     1.0000 0.82390  0.56340  0.86350  Biso   1.000  H
  N230     1.0000 0.69450  0.50751  0.84727  Biso   1.000  N
  N231     1.0000 0.65238  0.49630  0.84116  Biso   1.000  N
  C1070    1.0000 0.64514  0.47830  0.80829  Biso   1.000  C
  H841     1.0000 0.61960  0.46800  0.79770  Biso   1.000  H
  C1071    1.0000 0.68279  0.47840  0.79408  Biso   1.000  C
  H842     1.0000 0.68690  0.46820  0.77230  Biso   1.000  H
  C1072    1.0000 0.71330  0.49644  0.81818  Biso   1.000  C
  C1073    1.0000 0.62650  0.50050  0.86520  Biso   1.000  C
  H843     1.0000 0.59810  0.50260  0.85390  Biso   1.000  H
  H844     1.0000 0.63270  0.52860  0.87740  Biso   1.000  H
  N232     1.0000 0.44748  0.33696  0.00491  Biso   1.000  N
  C1074    1.0000 0.46267  0.35781  0.03467  Biso   1.000  C
  C1075    1.0000 0.44108  0.35557  0.06251  Biso   1.000  C
  H845     1.0000 0.45150  0.36980  0.08280  Biso   1.000  H
  C1076    1.0000 0.40431  0.33249  0.06059  Biso   1.000  C
  H846     1.0000 0.38960  0.33100  0.07960  Biso   1.000  H
  C1077    1.0000 0.38913  0.31164  0.03084  Biso   1.000  C
  H847     1.0000 0.36400  0.29590  0.02950  Biso   1.000  H
  C1078    1.0000 0.41071  0.31388  0.00300  Biso   1.000  C
  H848     1.0000 0.40030  0.29960  0.98270  Biso   1.000  H
  N233     1.0000 0.52236  0.36964  0.00755  Biso   1.000  N
  N234     1.0000 0.56159  0.38920  0.01517  Biso   1.000  N
  C1079    1.0000 0.56366  0.40768  0.04790  Biso   1.000  C
  H849     1.0000 0.58640  0.42280  0.05940  Biso   1.000  H
  C1080    1.0000 0.52570  0.39954  0.06052  Biso   1.000  C
  H850     1.0000 0.51860  0.40830  0.08190  Biso   1.000  H
  C1081    1.0000 0.50018  0.37603  0.03558  Biso   1.000  C
  C1082    1.0000 0.59025  0.38990  0.99292  Biso   1.000  C
  H851     1.0000 0.58790  0.36210  0.97970  Biso   1.000  H
  H852     1.0000 0.61780  0.39020  0.00580  Biso   1.000  H
  C1083    1.0000 0.62819  0.46303  0.89076  Biso   1.000  C
  C1084    1.0000 0.65357  0.42738  0.88578  Biso   1.000  C
  H853     1.0000 0.66870  0.42700  0.86690  Biso   1.000  H
  C1085    1.0000 0.65683  0.39226  0.90837  Biso   1.000  C
  H854     1.0000 0.67420  0.36790  0.90500  Biso   1.000  H
  C1086    1.0000 0.63470  0.39280  0.93594  Biso   1.000  C
  H855     1.0000 0.63690  0.36880  0.95140  Biso   1.000  H
  C1087    1.0000 0.60932  0.42846  0.94092  Biso   1.000  C
  C1088    1.0000 0.60606  0.46358  0.91833  Biso   1.000  C
  C1089    1.0000 0.58068  0.49924  0.92330  Biso   1.000  C
  H856     1.0000 0.57850  0.52320  0.90790  Biso   1.000  H
  C1090    1.0000 0.55855  0.49978  0.95087  Biso   1.000  C
  H857     1.0000 0.54120  0.52420  0.95430  Biso   1.000  H
  C1091    1.0000 0.56180  0.46467  0.97346  Biso   1.000  C
  H858     1.0000 0.54670  0.46500  0.99230  Biso   1.000  H
  C1092    1.0000 0.58719  0.42901  0.96848  Biso   1.000  C
  N235     1.0000 0.81147  0.17145  0.74965  Biso   1.000  N
  C1093    1.0000 0.81365  0.12723  0.75938  Biso   1.000  C
  C1094    1.0000 0.78433  0.09731  0.74550  Biso   1.000  C
  H859     1.0000 0.78580  0.06710  0.75220  Biso   1.000  H
  C1095    1.0000 0.75284  0.11162  0.72190  Biso   1.000  C
  H860     1.0000 0.73280  0.09120  0.71240  Biso   1.000  H
  C1096    1.0000 0.75066  0.15584  0.71217  Biso   1.000  C
  H861     1.0000 0.72910  0.16560  0.69600  Biso   1.000  H
  C1097    1.0000 0.77997  0.18576  0.72604  Biso   1.000  C
  H862     1.0000 0.77850  0.21600  0.71940  Biso   1.000  H
  N236     1.0000 0.86963  0.15022  0.79810  Biso   1.000  N
  N237     1.0000 0.90151  0.13049  0.82001  Biso   1.000  N
  C1098    1.0000 0.89637  0.08380  0.81820  Biso   1.000  C
  H863     1.0000 0.91340  0.06240  0.83030  Biso   1.000  H
  C1099    1.0000 0.86131  0.07468  0.79516  Biso   1.000  C
  H864     1.0000 0.85080  0.04610  0.78910  Biso   1.000  H
  C1100    1.0000 0.84478  0.11573  0.78274  Biso   1.000  C
  C1101    1.0000 0.92990  0.15470  0.84073  Biso   1.000  C
  H865     1.0000 0.93690  0.18170  0.82860  Biso   1.000  H
  H866     1.0000 0.95520  0.13690  0.84520  Biso   1.000  H
  N238     1.0000 0.05811  0.18920  0.07066  Biso   1.000  N
  C1102    1.0000 0.05779  0.23524  0.06958  Biso   1.000  C
  C1103    1.0000 0.08642  0.25924  0.09045  Biso   1.000  C
  H867     1.0000 0.08620  0.29070  0.08970  Biso   1.000  H
  C1104    1.0000 0.11536  0.23721  0.11240  Biso   1.000  C
  H868     1.0000 0.13490  0.25360  0.12670  Biso   1.000  H
  C1105    1.0000 0.11568  0.19117  0.11348  Biso   1.000  C
  H869     1.0000 0.13550  0.17610  0.12850  Biso   1.000  H
  C1106    1.0000 0.08706  0.16717  0.09260  Biso   1.000  C
  H870     1.0000 0.08730  0.13570  0.09330  Biso   1.000  H
  N239     1.0000 0.99900  0.22660  0.02910  Biso   1.000  N
  N240     1.0000 0.97109  0.25426  0.00908  Biso   1.000  N
  C1107    1.0000 0.98294  0.29897  0.01554  Biso   1.000  C
  H871     1.0000 0.96960  0.32440  0.00560  Biso   1.000  H
  C1108    1.0000 0.01817  0.29894  0.03956  Biso   1.000  C
  H872     1.0000 0.03260  0.32440  0.04850  Biso   1.000  H
  C1109    1.0000 0.02810  0.25421  0.04794  Biso   1.000  C
  C1110    1.0000 0.94090  0.23890  0.98616  Biso   1.000  C
  H873     1.0000 0.91860  0.26120  0.98360  Biso   1.000  H
  H874     1.0000 0.92950  0.21160  0.99520  Biso   1.000  H
  C1111    1.0000 0.91580  0.16841  0.87430  Biso   1.000  C
  C1112    1.0000 0.87754  0.15461  0.88181  Biso   1.000  C
  H875     1.0000 0.86030  0.13780  0.86590  Biso   1.000  H
  C1113    1.0000 0.86447  0.16543  0.91259  Biso   1.000  C
  H876     1.0000 0.83830  0.15600  0.91770  Biso   1.000  H
  C1114    1.0000 0.88966  0.19005  0.93585  Biso   1.000  C
  H877     1.0000 0.88070  0.19740  0.95690  Biso   1.000  H
  C1115    1.0000 0.92791  0.20385  0.92833  Biso   1.000  C
  C1116    1.0000 0.94098  0.19303  0.89756  Biso   1.000  C
  C1117    1.0000 0.97924  0.20683  0.89005  Biso   1.000  C
  H878     1.0000 0.98820  0.19940  0.86900  Biso   1.000  H
  C1118    1.0000 0.00442  0.23145  0.91331  Biso   1.000  C
  H879     1.0000 0.03060  0.24090  0.90820  Biso   1.000  H
  C1119    1.0000 0.99135  0.24227  0.94408  Biso   1.000  C
  H880     1.0000 0.00860  0.25910  0.96000  Biso   1.000  H
  C1120    1.0000 0.95310  0.22847  0.95160  Biso   1.000  C
  N241     1.0000 0.89512  0.25433  0.80892  Biso   1.000  N
  C1121    1.0000 0.87811  0.26998  0.83687  Biso   1.000  C
  C1122    1.0000 0.90134  0.29602  0.86047  Biso   1.000  C
  H881     1.0000 0.88970  0.30670  0.87960  Biso   1.000  H
  C1123    1.0000 0.94159  0.30641  0.85612  Biso   1.000  C
  H882     1.0000 0.95750  0.32420  0.87220  Biso   1.000  H
  C1124    1.0000 0.95860  0.29077  0.82817  Biso   1.000  C
  H883     1.0000 0.98610  0.29790  0.82520  Biso   1.000  H
  C1125    1.0000 0.93536  0.26473  0.80457  Biso   1.000  C
  H884     1.0000 0.94700  0.25400  0.78550  Biso   1.000  H
  N242     1.0000 0.81568  0.23572  0.81297  Biso   1.000  N
  N243     1.0000 0.77459  0.23274  0.82051  Biso   1.000  N
  C1126    1.0000 0.77189  0.25528  0.85129  Biso   1.000  C
  H885     1.0000 0.74790  0.25850  0.86230  Biso   1.000  H
  C1127    1.0000 0.81130  0.27218  0.86277  Biso   1.000  C
  H886     1.0000 0.81830  0.28870  0.88280  Biso   1.000  H
  C1128    1.0000 0.83836  0.26009  0.83909  Biso   1.000  C
  C1129    1.0000 0.74490  0.20650  0.80326  Biso   1.000  C
  H887     1.0000 0.74780  0.20840  0.77900  Biso   1.000  H
  H888     1.0000 0.71770  0.21870  0.80660  Biso   1.000  H
  N244     1.0000 0.54650  0.97656  0.84110  Biso   1.000  N
  C1130    1.0000 0.55366  0.95030  0.81385  Biso   1.000  C
  C1131    1.0000 0.52408  0.92040  0.80047  Biso   1.000  C
  H889     1.0000 0.52900  0.90250  0.78190  Biso   1.000  H
  C1132    1.0000 0.48735  0.91670  0.81434  Biso   1.000  C
  H890     1.0000 0.46710  0.89620  0.80520  Biso   1.000  H
  C1133    1.0000 0.48019  0.94290  0.84159  Biso   1.000  C
  H891     1.0000 0.45510  0.94030  0.85110  Biso   1.000  H
  C1134    1.0000 0.50977  0.97280  0.85497  Biso   1.000  C
  H892     1.0000 0.50490  0.99080  0.87360  Biso   1.000  H
  N245     1.0000 0.61889  0.98531  0.81806  Biso   1.000  N
  N246     1.0000 0.65597  0.98027  0.80341  Biso   1.000  N
  C1135    1.0000 0.65011  0.94634  0.77879  Biso   1.000  C
  H893     1.0000 0.66990  0.93610  0.76510  Biso   1.000  H
  C1136    1.0000 0.60940  0.93041  0.77821  Biso   1.000  C
  H894     1.0000 0.59720  0.90760  0.76410  Biso   1.000  H
  C1137    1.0000 0.59011  0.95450  0.80248  Biso   1.000  C
  C1138    1.0000 0.68970  0.00640  0.81307  Biso   1.000  C
  H895     1.0000 0.71410  0.99170  0.80580  Biso   1.000  H
  H896     1.0000 0.69360  0.00780  0.83790  Biso   1.000  H
  C1139    1.0000 0.74621  0.15726  0.81370  Biso   1.000  C
  C1140    1.0000 0.77903  0.14299  0.83603  Biso   1.000  C
  H897     1.0000 0.79980  0.16330  0.84430  Biso   1.000  H
  C1141    1.0000 0.78148  0.09894  0.84618  Biso   1.000  C
  H898     1.0000 0.80390  0.08920  0.86140  Biso   1.000  H
  C1142    1.0000 0.75112  0.06916  0.83401  Biso   1.000  C
  H899     1.0000 0.75280  0.03910  0.84100  Biso   1.000  H
  C1143    1.0000 0.71830  0.08343  0.81169  Biso   1.000  C
  C1144    1.0000 0.71584  0.12749  0.80153  Biso   1.000  C
  C1145    1.0000 0.68302  0.14176  0.77921  Biso   1.000  C
  H900     1.0000 0.68130  0.17190  0.77230  Biso   1.000  H
  C1146    1.0000 0.65266  0.11199  0.76704  Biso   1.000  C
  H901     1.0000 0.63020  0.12170  0.75180  Biso   1.000  H
  C1147    1.0000 0.65511  0.06793  0.77720  Biso   1.000  C
  H902     1.0000 0.63440  0.04760  0.76890  Biso   1.000  H
  C1148    1.0000 0.68793  0.05366  0.79952  Biso   1.000  C
  N247     1.0000 0.88056  0.53783  0.10759  Biso   1.000  N
  C1149    1.0000 0.89664  0.53908  0.07698  Biso   1.000  C
  C1150    1.0000 0.88626  0.57351  0.05458  Biso   1.000  C
  H903     1.0000 0.89730  0.57440  0.03370  Biso   1.000  H
  C1151    1.0000 0.85980  0.60668  0.06279  Biso   1.000  C
  H904     1.0000 0.85270  0.63020  0.04750  Biso   1.000  H
  C1152    1.0000 0.84372  0.60542  0.09340  Biso   1.000  C
  H905     1.0000 0.82560  0.62810  0.09900  Biso   1.000  H
  C1153    1.0000 0.85410  0.57100  0.11580  Biso   1.000  C
  H906     1.0000 0.84310  0.57010  0.13670  Biso   1.000  H
  N248     1.0000 0.93130  0.47236  0.09499  Biso   1.000  N
  N249     1.0000 0.96191  0.44455  0.08390  Biso   1.000  N
  C1154    1.0000 0.97235  0.46160  0.05296  Biso   1.000  C
  H907     1.0000 0.99200  0.44950  0.03990  Biso   1.000  H
  C1155    1.0000 0.94819  0.49995  0.04493  Biso   1.000  C
  H908     1.0000 0.94890  0.51800  0.02560  Biso   1.000  H
  C1156    1.0000 0.92282  0.50660  0.07091  Biso   1.000  C
  C1157    1.0000 0.97510  0.40610  0.09947  Biso   1.000  C
  H909     1.0000 0.97490  0.40990  0.12400  Biso   1.000  H
  H910     1.0000 0.00390  0.40100  0.09530  Biso   1.000  H
  N250     1.0000 0.03373  0.09305  0.05072  Biso   1.000  N
  C1158    1.0000 0.01869  0.07800  0.07973  Biso   1.000  C
  C1159    1.0000 0.03285  0.03831  0.09434  Biso   1.000  C
  H911     1.0000 0.02260  0.02800  0.11420  Biso   1.000  H
  C1160    1.0000 0.06204  0.01368  0.07994  Biso   1.000  C
  H912     1.0000 0.07170  0.98660  0.08990  Biso   1.000  H
  C1161    1.0000 0.07707  0.02874  0.05093  Biso   1.000  C
  H913     1.0000 0.09700  0.01190  0.04110  Biso   1.000  H
  C1162    1.0000 0.06292  0.06842  0.03632  Biso   1.000  C
  H914     1.0000 0.07320  0.07870  0.01650  Biso   1.000  H
  N251     1.0000 0.97738  0.14301  0.07567  Biso   1.000  N
  N252     1.0000 0.94754  0.16316  0.09372  Biso   1.000  N
  C1163    1.0000 0.94223  0.13588  0.12177  Biso   1.000  C
  H915     1.0000 0.92410  0.14140  0.13810  Biso   1.000  H
  C1164    1.0000 0.96878  0.09887  0.12105  Biso   1.000  C
  H916     1.0000 0.97150  0.07530  0.13690  Biso   1.000  H
  C1165    1.0000 0.99050  0.10327  0.09256  Biso   1.000  C
  C1166    1.0000 0.92860  0.20260  0.08465  Biso   1.000  C
  H917     1.0000 0.90070  0.20220  0.09160  Biso   1.000  H
  H918     1.0000 0.92590  0.20520  0.05990  Biso   1.000  H
  C1167    1.0000 0.95033  0.36481  0.08860  Biso   1.000  C
  C1168    1.0000 0.91691  0.36980  0.06436  Biso   1.000  C
  H919     1.0000 0.90910  0.39850  0.05630  Biso   1.000  H
  C1169    1.0000 0.89494  0.33282  0.05200  Biso   1.000  C
  H920     1.0000 0.87210  0.33620  0.03540  Biso   1.000  H
  C1170    1.0000 0.90639  0.29084  0.06386  Biso   1.000  C
  H921     1.0000 0.89140  0.26560  0.05540  Biso   1.000  H
  C1171    1.0000 0.93981  0.28585  0.08810  Biso   1.000  C
  C1172    1.0000 0.96178  0.32283  0.10047  Biso   1.000  C
  C1173    1.0000 0.99520  0.31784  0.12470  Biso   1.000  C
  H922     1.0000 0.01020  0.34310  0.13320  Biso   1.000  H
  C1174    1.0000 0.00665  0.27586  0.13657  Biso   1.000  C
  H923     1.0000 0.02950  0.27250  0.15310  Biso   1.000  H
  C1175    1.0000 0.98469  0.23888  0.12421  Biso   1.000  C
  H924     1.0000 0.99250  0.21020  0.13230  Biso   1.000  H
  C1176    1.0000 0.95126  0.24387  0.09997  Biso   1.000  C
  Co29     1.0000 0.76598  0.95861  0.11576  Biso   1.000  Co
  Co30     1.0000 0.64439  0.28609  0.22376  Biso   1.000  Co
  Co31     1.0000 0.59873  0.01652  0.86114  Biso   1.000  Co
  Co32     1.0000 0.01310  0.15825  0.03503  Biso   1.000  Co
  N253     1.0000 0.79961  0.95698  0.07331  Biso   1.000  N
  C1177    1.0000 0.79251  0.99292  0.05174  Biso   1.000  C
  C1178    1.0000 0.81038  0.99430  0.02195  Biso   1.000  C
  H925     1.0000 0.80550  0.01890  0.00720  Biso   1.000  H
  C1179    1.0000 0.83537  0.95975  0.01372  Biso   1.000  C
  H926     1.0000 0.84760  0.96070  0.99340  Biso   1.000  H
  C1180    1.0000 0.84247  0.92382  0.03529  Biso   1.000  C
  H927     1.0000 0.85950  0.90020  0.02970  Biso   1.000  H
  C1181    1.0000 0.82459  0.92243  0.06509  Biso   1.000  C
  H928     1.0000 0.82940  0.89790  0.07980  Biso   1.000  H
  N254     1.0000 0.74492  0.01793  0.08863  Biso   1.000  N
  N255     1.0000 0.71649  0.05322  0.08942  Biso   1.000  N
  C1182    1.0000 0.71989  0.08073  0.06112  Biso   1.000  C
  H929     1.0000 0.70450  0.10680  0.05540  Biso   1.000  H
  C1183    1.0000 0.75043  0.06243  0.04284  Biso   1.000  C
  H930     1.0000 0.75900  0.07410  0.02280  Biso   1.000  H
  C1184    1.0000 0.76590  0.02362  0.05984  Biso   1.000  C
  C1185    1.0000 0.69260  0.06100  0.11500  Biso   1.000  C
  H931     1.0000 0.66630  0.07400  0.10520  Biso   1.000  H
  H932     1.0000 0.68650  0.03230  0.12530  Biso   1.000  H
  N256     1.0000 0.59863  0.29967  0.25819  Biso   1.000  N
  C1186    1.0000 0.59856  0.26935  0.28429  Biso   1.000  C
  C1187    1.0000 0.57203  0.27509  0.30860  Biso   1.000  C
  H933     1.0000 0.57200  0.25440  0.32640  Biso   1.000  H
  C1188    1.0000 0.54556  0.31110  0.30679  Biso   1.000  C
  H934     1.0000 0.52740  0.31510  0.32340  Biso   1.000  H
  C1189    1.0000 0.54563  0.34145  0.28069  Biso   1.000  C
  H935     1.0000 0.52750  0.36610  0.27950  Biso   1.000  H
  C1190    1.0000 0.57216  0.33572  0.25638  Biso   1.000  C
  H936     1.0000 0.57220  0.35640  0.23850  Biso   1.000  H
  N257     1.0000 0.65325  0.23469  0.25968  Biso   1.000  N
  N258     1.0000 0.67979  0.19798  0.26693  Biso   1.000  N
  C1191    1.0000 0.66890  0.17712  0.29641  Biso   1.000  C
  H937     1.0000 0.68160  0.15170  0.30690  Biso   1.000  H
  C1192    1.0000 0.63561  0.20093  0.30738  Biso   1.000  C
  H938     1.0000 0.62220  0.19420  0.32650  Biso   1.000  H
  C1193    1.0000 0.62594  0.23652  0.28468  Biso   1.000  C
  C1194    1.0000 0.70580  0.18350  0.24447  Biso   1.000  C
  H939     1.0000 0.71650  0.20970  0.23340  Biso   1.000  H
  H940     1.0000 0.72940  0.16840  0.25720  Biso   1.000  H
  C1195    1.0000 0.71212  0.09193  0.14263  Biso   1.000  C
  C1196    1.0000 0.75271  0.10445  0.14201  Biso   1.000  C
  H941     1.0000 0.76780  0.09360  0.12490  Biso   1.000  H
  C1197    1.0000 0.77125  0.13282  0.16649  Biso   1.000  C
  H942     1.0000 0.79900  0.14140  0.16610  Biso   1.000  H
  C1198    1.0000 0.74920  0.14869  0.19160  Biso   1.000  C
  H943     1.0000 0.76190  0.16810  0.20830  Biso   1.000  H
  C1199    1.0000 0.70861  0.13617  0.19222  Biso   1.000  C
  C1200    1.0000 0.69007  0.10780  0.16773  Biso   1.000  C
  C1201    1.0000 0.64948  0.09528  0.16835  Biso   1.000  C
  H944     1.0000 0.63680  0.07590  0.15160  Biso   1.000  H
  C1202    1.0000 0.62743  0.11115  0.19346  Biso   1.000  C
  H945     1.0000 0.59970  0.10260  0.19390  Biso   1.000  H
  C1203    1.0000 0.64596  0.13953  0.21794  Biso   1.000  C
  H946     1.0000 0.63090  0.15040  0.23510  Biso   1.000  H
  C1204    1.0000 0.68655  0.15204  0.21732  Biso   1.000  C
  N259     1.0000 0.79087  0.89681  0.13630  Biso   1.000  N
  C1205    1.0000 0.76798  0.85960  0.12584  Biso   1.000  C
  C1206    1.0000 0.78264  0.81754  0.13477  Biso   1.000  C
  H947     1.0000 0.76700  0.79210  0.12760  Biso   1.000  H
  C1207    1.0000 0.82018  0.81270  0.15416  Biso   1.000  C
  H948     1.0000 0.83020  0.78400  0.16030  Biso   1.000  H
  C1208    1.0000 0.84306  0.84991  0.16463  Biso   1.000  C
  H949     1.0000 0.86870  0.84660  0.17790  Biso   1.000  H
  C1209    1.0000 0.82841  0.89197  0.15570  Biso   1.000  C
  H950     1.0000 0.84410  0.91740  0.16280  Biso   1.000  H
  N260     1.0000 0.72474  0.91018  0.09357  Biso   1.000  N
  N261     1.0000 0.68533  0.91045  0.07497  Biso   1.000  N
  C1210    1.0000 0.66862  0.86718  0.07631  Biso   1.000  C
  H951     1.0000 0.64260  0.85790  0.06600  Biso   1.000  H
  C1211    1.0000 0.69770  0.84018  0.09574  Biso   1.000  C
  H952     1.0000 0.69450  0.80970  0.10070  Biso   1.000  H
  C1212    1.0000 0.73238  0.86675  0.10641  Biso   1.000  C
  C1213    1.0000 0.67220  0.94580  0.05525  Biso   1.000  C
  H953     1.0000 0.64210  0.94390  0.05010  Biso   1.000  H
  H954     1.0000 0.67840  0.97330  0.06830  Biso   1.000  H
  N262     1.0000 0.58021  0.07460  0.83425  Biso   1.000  N
  C1214    1.0000 0.60383  0.11199  0.84272  Biso   1.000  C
  C1215    1.0000 0.59206  0.15286  0.82883  Biso   1.000  C
  H955     1.0000 0.60820  0.17840  0.83460  Biso   1.000  H
  C1216    1.0000 0.55666  0.15634  0.80648  Biso   1.000  C
  H956     1.0000 0.54860  0.18430  0.79700  Biso   1.000  H
  C1217    1.0000 0.53304  0.11895  0.79802  Biso   1.000  C
  H957     1.0000 0.50880  0.12130  0.78270  Biso   1.000  H
  C1218    1.0000 0.54481  0.07808  0.81190  Biso   1.000  C
  H958     1.0000 0.52870  0.05250  0.80610  Biso   1.000  H
  N263     1.0000 0.64797  0.06163  0.87576  Biso   1.000  N
  N264     1.0000 0.68693  0.06272  0.89506  Biso   1.000  N
  C1219    1.0000 0.70176  0.10691  0.89493  Biso   1.000  C
  H959     1.0000 0.72720  0.11710  0.90590  Biso   1.000  H
  C1220    1.0000 0.67196  0.13312  0.87555  Biso   1.000  C
  H960     1.0000 0.67390  0.16400  0.87130  Biso   1.000  H
  C1221    1.0000 0.63872  0.10513  0.86371  Biso   1.000  C
  C1222    1.0000 0.70320  0.02820  0.91465  Biso   1.000  C
  H961     1.0000 0.69650  0.00020  0.90250  Biso   1.000  H
  H962     1.0000 0.73340  0.03130  0.91750  Biso   1.000  H
  C1223    1.0000 0.69102  0.94984  0.02190  Biso   1.000  C
  C1224    1.0000 0.71717  0.91694  0.01273  Biso   1.000  C
  H963     1.0000 0.72370  0.89240  0.02720  Biso   1.000  H
  C1225    1.0000 0.73378  0.91999  0.98242  Biso   1.000  C
  H964     1.0000 0.75170  0.89750  0.97610  Biso   1.000  H
  C1226    1.0000 0.72424  0.95593  0.96129  Biso   1.000  C
  H965     1.0000 0.73560  0.95800  0.94060  Biso   1.000  H
  C1227    1.0000 0.69809  0.98883  0.97046  Biso   1.000  C
  C1228    1.0000 0.68148  0.98578  0.00077  Biso   1.000  C
  C1229    1.0000 0.65533  0.01868  0.00995  Biso   1.000  C
  H966     1.0000 0.64400  0.01660  0.03070  Biso   1.000  H
  C1230    1.0000 0.64578  0.05463  0.98882  Biso   1.000  C
  H967     1.0000 0.62790  0.07710  0.99510  Biso   1.000  H
  C1231    1.0000 0.66239  0.05767  0.95851  Biso   1.000  C
  H968     1.0000 0.65590  0.08220  0.94410  Biso   1.000  H
  C1232    1.0000 0.68854  0.02478  0.94933  Biso   1.000  C
  N265     1.0000 0.72867  0.96796  0.15540  Biso   1.000  N
  C1233    1.0000 0.74637  0.99371  0.18193  Biso   1.000  C
  C1234    1.0000 0.72363  0.00572  0.20770  Biso   1.000  C
  H969     1.0000 0.73570  0.02330  0.22580  Biso   1.000  H
  C1235    1.0000 0.68319  0.99198  0.20695  Biso   1.000  C
  H970     1.0000 0.66760  0.00020  0.22460  Biso   1.000  H
  C1236    1.0000 0.66549  0.96623  0.18043  Biso   1.000  C
  H971     1.0000 0.63780  0.95680  0.17990  Biso   1.000  H
  C1237    1.0000 0.68823  0.95422  0.15466  Biso   1.000  C
  H972     1.0000 0.67610  0.93660  0.13650  Biso   1.000  H
  N266     1.0000 0.80550  0.99249  0.15273  Biso   1.000  N
  N267     1.0000 0.84762  0.00370  0.15884  Biso   1.000  N
  C1238    1.0000 0.85486  0.02170  0.19171  Biso   1.000  C
  H973     1.0000 0.88040  0.03200  0.20230  Biso   1.000  H
  C1239    1.0000 0.81721  0.02160  0.20592  Biso   1.000  C
  H974     1.0000 0.81310  0.03180  0.22770  Biso   1.000  H
  C1240    1.0000 0.78670  0.00356  0.18182  Biso   1.000  C
  C1241    1.0000 0.87350  0.99950  0.13480  Biso   1.000  C
  H975     1.0000 0.90190  0.99740  0.14610  Biso   1.000  H
  H976     1.0000 0.86730  0.97140  0.12260  Biso   1.000  H
  N268     1.0000 0.05252  0.16304  0.99509  Biso   1.000  N
  C1242    1.0000 0.03733  0.14219  0.96533  Biso   1.000  C
  C1243    1.0000 0.05892  0.14443  0.93749  Biso   1.000  C
  H977     1.0000 0.04850  0.13020  0.91720  Biso   1.000  H
  C1244    1.0000 0.09569  0.16751  0.93941  Biso   1.000  C
  H978     1.0000 0.11040  0.16900  0.92040  Biso   1.000  H
  C1245    1.0000 0.11087  0.18836  0.96916  Biso   1.000  C
  H979     1.0000 0.13600  0.20410  0.97050  Biso   1.000  H
  C1246    1.0000 0.08929  0.18612  0.99700  Biso   1.000  C
  H980     1.0000 0.09970  0.20040  0.01730  Biso   1.000  H
  N269     1.0000 0.97764  0.13036  0.99245  Biso   1.000  N
  N270     1.0000 0.93841  0.11080  0.98483  Biso   1.000  N
  C1247    1.0000 0.93634  0.09232  0.95210  Biso   1.000  C
  H981     1.0000 0.91360  0.07720  0.94060  Biso   1.000  H
  C1248    1.0000 0.97430  0.10046  0.93948  Biso   1.000  C
  H982     1.0000 0.98140  0.09170  0.91810  Biso   1.000  H
  C1249    1.0000 0.99982  0.12397  0.96442  Biso   1.000  C
  C1250    1.0000 0.90975  0.11010  0.00708  Biso   1.000  C
  H983     1.0000 0.91210  0.13790  0.02030  Biso   1.000  H
  H984     1.0000 0.88220  0.10980  0.99420  Biso   1.000  H
  C1251    1.0000 0.87181  0.03697  0.10924  Biso   1.000  C
  C1252    1.0000 0.84643  0.07262  0.11422  Biso   1.000  C
  H985     1.0000 0.83130  0.07300  0.13310  Biso   1.000  H
  C1253    1.0000 0.84317  0.10774  0.09163  Biso   1.000  C
  H986     1.0000 0.82580  0.13210  0.09500  Biso   1.000  H
  C1254    1.0000 0.86530  0.10720  0.06406  Biso   1.000  C
  H987     1.0000 0.86310  0.13120  0.04860  Biso   1.000  H
  C1255    1.0000 0.89068  0.07154  0.05908  Biso   1.000  C
  C1256    1.0000 0.89394  0.03642  0.08167  Biso   1.000  C
  C1257    1.0000 0.91932  0.00076  0.07670  Biso   1.000  C
  H988     1.0000 0.92150  0.97680  0.09210  Biso   1.000  H
  C1258    1.0000 0.94145  0.00022  0.04913  Biso   1.000  C
  H989     1.0000 0.95880  0.97580  0.04570  Biso   1.000  H
  C1259    1.0000 0.93820  0.03533  0.02654  Biso   1.000  C
  H990     1.0000 0.95330  0.03500  0.00770  Biso   1.000  H
  C1260    1.0000 0.91281  0.07099  0.03152  Biso   1.000  C
  N271     1.0000 0.68853  0.32855  0.25035  Biso   1.000  N
  C1261    1.0000 0.68635  0.37277  0.24062  Biso   1.000  C
  C1262    1.0000 0.71567  0.40269  0.25450  Biso   1.000  C
  H991     1.0000 0.71420  0.43290  0.24780  Biso   1.000  H
  C1263    1.0000 0.74716  0.38838  0.27810  Biso   1.000  C
  H992     1.0000 0.76720  0.40880  0.28760  Biso   1.000  H
  C1264    1.0000 0.74934  0.34416  0.28783  Biso   1.000  C
  H993     1.0000 0.77090  0.33440  0.30400  Biso   1.000  H
  C1265    1.0000 0.72003  0.31424  0.27396  Biso   1.000  C
  H994     1.0000 0.72150  0.28400  0.28060  Biso   1.000  H
  N272     1.0000 0.63037  0.34978  0.20190  Biso   1.000  N
  N273     1.0000 0.59849  0.36951  0.17999  Biso   1.000  N
  C1266    1.0000 0.60363  0.41620  0.18180  Biso   1.000  C
  H995     1.0000 0.58660  0.43760  0.16970  Biso   1.000  H
  C1267    1.0000 0.63869  0.42532  0.20484  Biso   1.000  C
  H996     1.0000 0.64920  0.45390  0.21090  Biso   1.000  H
  C1268    1.0000 0.65522  0.38427  0.21726  Biso   1.000  C
  C1269    1.0000 0.57010  0.34530  0.15927  Biso   1.000  C
  H997     1.0000 0.56310  0.31830  0.17140  Biso   1.000  H
  H998     1.0000 0.54480  0.36310  0.15480  Biso   1.000  H
  N274     1.0000 0.44189  0.31080  0.92934  Biso   1.000  N
  C1270    1.0000 0.44221  0.26476  0.93042  Biso   1.000  C
  C1271    1.0000 0.41358  0.24076  0.90955  Biso   1.000  C
  H999     1.0000 0.41380  0.20930  0.91030  Biso   1.000  H
  C1272    1.0000 0.38464  0.26279  0.88760  Biso   1.000  C
  H1000    1.0000 0.36510  0.24640  0.87330  Biso   1.000  H
  C1273    1.0000 0.38432  0.30883  0.88652  Biso   1.000  C
  H1001    1.0000 0.36450  0.32390  0.87150  Biso   1.000  H
  C1274    1.0000 0.41294  0.33283  0.90740  Biso   1.000  C
  H1002    1.0000 0.41270  0.36430  0.90670  Biso   1.000  H
  N275     1.0000 0.50100  0.27340  0.97090  Biso   1.000  N
  N276     1.0000 0.52891  0.24574  0.99092  Biso   1.000  N
  C1275    1.0000 0.51706  0.20103  0.98446  Biso   1.000  C
  H1003    1.0000 0.53040  0.17560  0.99440  Biso   1.000  H
  C1276    1.0000 0.48183  0.20106  0.96044  Biso   1.000  C
  H1004    1.0000 0.46740  0.17560  0.95150  Biso   1.000  H
  C1277    1.0000 0.47190  0.24579  0.95206  Biso   1.000  C
  C1278    1.0000 0.55910  0.26110  0.01384  Biso   1.000  C
  H1005    1.0000 0.58140  0.23880  0.01640  Biso   1.000  H
  H1006    1.0000 0.57050  0.28840  0.00480  Biso   1.000  H
  C1279    1.0000 0.58420  0.33159  0.12570  Biso   1.000  C
  C1280    1.0000 0.62246  0.34539  0.11819  Biso   1.000  C
  H1007    1.0000 0.63970  0.36220  0.13410  Biso   1.000  H
  C1281    1.0000 0.63553  0.33457  0.08741  Biso   1.000  C
  H1008    1.0000 0.66170  0.34400  0.08230  Biso   1.000  H
  C1282    1.0000 0.61034  0.30995  0.06415  Biso   1.000  C
  H1009    1.0000 0.61930  0.30260  0.04310  Biso   1.000  H
  C1283    1.0000 0.57209  0.29615  0.07167  Biso   1.000  C
  C1284    1.0000 0.55902  0.30697  0.10244  Biso   1.000  C
  C1285    1.0000 0.52076  0.29317  0.10995  Biso   1.000  C
  H1010    1.0000 0.51180  0.30060  0.13100  Biso   1.000  H
  C1286    1.0000 0.49558  0.26855  0.08669  Biso   1.000  C
  H1011    1.0000 0.46940  0.25910  0.09180  Biso   1.000  H
  C1287    1.0000 0.50865  0.25773  0.05592  Biso   1.000  C
  H1012    1.0000 0.49140  0.24090  0.04000  Biso   1.000  H
  C1288    1.0000 0.54690  0.27153  0.04840  Biso   1.000  C
  N277     1.0000 0.60488  0.24567  0.19108  Biso   1.000  N
  C1289    1.0000 0.62189  0.23002  0.16313  Biso   1.000  C
  C1290    1.0000 0.59866  0.20398  0.13953  Biso   1.000  C
  H1013    1.0000 0.61030  0.19330  0.12040  Biso   1.000  H
  C1291    1.0000 0.55841  0.19359  0.14388  Biso   1.000  C
  H1014    1.0000 0.54250  0.17580  0.12780  Biso   1.000  H
  C1292    1.0000 0.54140  0.20923  0.17183  Biso   1.000  C
  H1015    1.0000 0.51390  0.20210  0.17480  Biso   1.000  H
  C1293    1.0000 0.56464  0.23527  0.19543  Biso   1.000  C
  H1016    1.0000 0.55300  0.24600  0.21450  Biso   1.000  H
  N278     1.0000 0.68432  0.26428  0.18703  Biso   1.000  N
  N279     1.0000 0.72541  0.26726  0.17949  Biso   1.000  N
  C1294    1.0000 0.72811  0.24472  0.14871  Biso   1.000  C
  H1017    1.0000 0.75210  0.24150  0.13770  Biso   1.000  H
  C1295    1.0000 0.68870  0.22782  0.13723  Biso   1.000  C
  H1018    1.0000 0.68170  0.21130  0.11720  Biso   1.000  H
  C1296    1.0000 0.66164  0.23991  0.16091  Biso   1.000  C
  C1297    1.0000 0.75510  0.29350  0.19674  Biso   1.000  C
  H1019    1.0000 0.75220  0.29160  0.22100  Biso   1.000  H
  H1020    1.0000 0.78230  0.28130  0.19340  Biso   1.000  H
  N280     1.0000 0.95350  0.52344  0.15890  Biso   1.000  N
  C1298    1.0000 0.94634  0.54970  0.18615  Biso   1.000  C
  C1299    1.0000 0.97592  0.57960  0.19953  Biso   1.000  C
  H1021    1.0000 0.97100  0.59750  0.21810  Biso   1.000  H
  C1300    1.0000 0.01265  0.58330  0.18566  Biso   1.000  C
  H1022    1.0000 0.03290  0.60380  0.19480  Biso   1.000  H
  C1301    1.0000 0.01981  0.55710  0.15841  Biso   1.000  C
  H1023    1.0000 0.04490  0.55970  0.14890  Biso   1.000  H
  C1302    1.0000 0.99023  0.52720  0.14503  Biso   1.000  C
  H1024    1.0000 0.99510  0.50920  0.12640  Biso   1.000  H
  N281     1.0000 0.88111  0.51469  0.18194  Biso   1.000  N
  N282     1.0000 0.84403  0.51973  0.19659  Biso   1.000  N
  C1303    1.0000 0.84989  0.55366  0.22121  Biso   1.000  C
  H1025    1.0000 0.83010  0.56390  0.23490  Biso   1.000  H
  C1304    1.0000 0.89060  0.56959  0.22179  Biso   1.000  C
  H1026    1.0000 0.90280  0.59240  0.23590  Biso   1.000  H
  C1305    1.0000 0.90989  0.54550  0.19752  Biso   1.000  C
  C1306    1.0000 0.81030  0.49360  0.18693  Biso   1.000  C
  H1027    1.0000 0.78590  0.50830  0.19420  Biso   1.000  H
  H1028    1.0000 0.80640  0.49220  0.16210  Biso   1.000  H
  C1307    1.0000 0.75379  0.34274  0.18630  Biso   1.000  C
  C1308    1.0000 0.72097  0.35701  0.16397  Biso   1.000  C
  H1029    1.0000 0.70020  0.33670  0.15570  Biso   1.000  H
  C1309    1.0000 0.71852  0.40106  0.15382  Biso   1.000  C
  H1030    1.0000 0.69610  0.41080  0.13860  Biso   1.000  H
  C1310    1.0000 0.74888  0.43084  0.16599  Biso   1.000  C
  H1031    1.0000 0.74720  0.46090  0.15900  Biso   1.000  H
  C1311    1.0000 0.78170  0.41657  0.18831  Biso   1.000  C
  C1312    1.0000 0.78416  0.37251  0.19847  Biso   1.000  C
  C1313    1.0000 0.81698  0.35824  0.22079  Biso   1.000  C
  H1032    1.0000 0.81870  0.32810  0.22770  Biso   1.000  H
  C1314    1.0000 0.84734  0.38801  0.23296  Biso   1.000  C
  H1033    1.0000 0.86980  0.37830  0.24820  Biso   1.000  H
  C1315    1.0000 0.84489  0.43207  0.22280  Biso   1.000  C
  H1034    1.0000 0.86560  0.45240  0.23110  Biso   1.000  H
  C1316    1.0000 0.81207  0.44634  0.20048  Biso   1.000  C
  N283     1.0000 0.61944  0.96217  0.89241  Biso   1.000  N
  C1317    1.0000 0.60336  0.96092  0.92302  Biso   1.000  C
  C1318    1.0000 0.61374  0.92649  0.94542  Biso   1.000  C
  H1035    1.0000 0.60270  0.92560  0.96630  Biso   1.000  H
  C1319    1.0000 0.64020  0.89332  0.93721  Biso   1.000  C
  H1036    1.0000 0.64730  0.86980  0.95250  Biso   1.000  H
  C1320    1.0000 0.65628  0.89458  0.90660  Biso   1.000  C
  H1037    1.0000 0.67440  0.87190  0.90100  Biso   1.000  H
  C1321    1.0000 0.64590  0.92900  0.88420  Biso   1.000  C
  H1038    1.0000 0.65690  0.92990  0.86330  Biso   1.000  H
  N284     1.0000 0.56870  0.02764  0.90501  Biso   1.000  N
  N285     1.0000 0.53809  0.05545  0.91610  Biso   1.000  N
  C1322    1.0000 0.52765  0.03840  0.94704  Biso   1.000  C
  H1039    1.0000 0.50800  0.05050  0.96010  Biso   1.000  H
  C1323    1.0000 0.55181  0.00005  0.95507  Biso   1.000  C
  H1040    1.0000 0.55110  0.98200  0.97440  Biso   1.000  H
  C1324    1.0000 0.57718  0.99340  0.92909  Biso   1.000  C
  C1325    1.0000 0.52490  0.09390  0.90053  Biso   1.000  C
  H1041    1.0000 0.52510  0.09010  0.87600  Biso   1.000  H
  H1042    1.0000 0.49610  0.09900  0.90470  Biso   1.000  H
  N286     1.0000 0.46627  0.40695  0.94928  Biso   1.000  N
  C1326    1.0000 0.48131  0.42200  0.92027  Biso   1.000  C
  C1327    1.0000 0.46715  0.46169  0.90566  Biso   1.000  C
  H1043    1.0000 0.47740  0.47200  0.88580  Biso   1.000  H
  C1328    1.0000 0.43796  0.48632  0.92006  Biso   1.000  C
  H1044    1.0000 0.42830  0.51340  0.91010  Biso   1.000  H
  C1329    1.0000 0.42293  0.47126  0.94907  Biso   1.000  C
  H1045    1.0000 0.40300  0.48810  0.95890  Biso   1.000  H
  C1330    1.0000 0.43708  0.43158  0.96368  Biso   1.000  C
  H1046    1.0000 0.42680  0.42130  0.98350  Biso   1.000  H
  N287     1.0000 0.52262  0.35699  0.92433  Biso   1.000  N
  N288     1.0000 0.55246  0.33684  0.90628  Biso   1.000  N
  C1331    1.0000 0.55777  0.36412  0.87823  Biso   1.000  C
  H1047    1.0000 0.57590  0.35860  0.86190  Biso   1.000  H
  C1332    1.0000 0.53122  0.40113  0.87895  Biso   1.000  C
  H1048    1.0000 0.52850  0.42470  0.86310  Biso   1.000  H
  C1333    1.0000 0.50950  0.39673  0.90744  Biso   1.000  C
  C1334    1.0000 0.57140  0.29740  0.91535  Biso   1.000  C
  H1049    1.0000 0.59930  0.29780  0.90840  Biso   1.000  H
  H1050    1.0000 0.57410  0.29480  0.94010  Biso   1.000  H
  C1335    1.0000 0.54967  0.13519  0.91140  Biso   1.000  C
  C1336    1.0000 0.58309  0.13020  0.93564  Biso   1.000  C
  H1051    1.0000 0.59090  0.10150  0.94370  Biso   1.000  H
  C1337    1.0000 0.60506  0.16718  0.94800  Biso   1.000  C
  H1052    1.0000 0.62790  0.16380  0.96460  Biso   1.000  H
  C1338    1.0000 0.59361  0.20916  0.93614  Biso   1.000  C
  H1053    1.0000 0.60860  0.23440  0.94460  Biso   1.000  H
  C1339    1.0000 0.56019  0.21415  0.91190  Biso   1.000  C
  C1340    1.0000 0.53822  0.17717  0.89953  Biso   1.000  C
  C1341    1.0000 0.50480  0.18216  0.87530  Biso   1.000  C
  H1054    1.0000 0.48980  0.15690  0.86680  Biso   1.000  H
  C1342    1.0000 0.49335  0.22414  0.86343  Biso   1.000  C
  H1055    1.0000 0.47050  0.22750  0.84690  Biso   1.000  H
  C1343    1.0000 0.51531  0.26112  0.87579  Biso   1.000  C
  H1056    1.0000 0.50750  0.28980  0.86770  Biso   1.000  H
  C1344    1.0000 0.54874  0.25613  0.90003  Biso   1.000  C
