data_image0
_cell_length_a       23.108
_cell_length_b       23.108
_cell_length_c       56.327
_cell_angle_alpha    90
_cell_angle_beta     90
_cell_angle_gamma    120

_symmetry_space_group_name_H-M    "P 1"
_symmetry_int_tables_number       1

loop_
  _symmetry_equiv_pos_as_xyz
  'x, y, z'

loop_
  _atom_site_label
  _atom_site_occupancy
  _atom_site_fract_x
  _atom_site_fract_y
  _atom_site_fract_z
  _atom_site_thermal_displace_type
  _atom_site_B_iso_or_equiv
  _atom_site_type_symbol
  Cu1      1.0000 0.32335  0.09049  0.00771  Biso   1.000  Cu
  Cu2      1.0000 0.25920  0.00056  0.05512  Biso   1.000  Cu
  Cu3      1.0000 0.29854  0.15637  0.05511  Biso   1.000  Cu
  Cu4      1.0000 0.40998  0.11895  0.05347  Biso   1.000  Cu
  Cu5      1.0000 0.02702  0.93606  0.11702  Biso   1.000  Cu
  O1       1.0000 0.33370  0.03520  0.03184  Biso   1.000  O
  H1       1.0000 0.35540  0.01670  0.02940  Biso   1.000  H
  O2       1.0000 0.36700  0.15920  0.03316  Biso   1.000  O
  H2       1.0000 0.39370  0.19620  0.02800  Biso   1.000  H
  O3       1.0000 0.31780  0.08970  0.06980  Biso   1.000  O
  H3       1.0000 0.32380  0.09070  0.08410  Biso   1.000  H
  O4       1.0000 0.07180  0.02160  0.13509  Biso   1.000  O
  H4       1.0000 0.11110  0.03770  0.13980  Biso   1.000  H
  N1       1.0000 0.29710  0.01970  0.98382  Biso   1.000  N
  N2       1.0000 0.23560  0.93350  0.95929  Biso   1.000  N
  N3       1.0000 0.33210  0.15850  0.98469  Biso   1.000  N
  N4       1.0000 0.30550  0.21650  0.95983  Biso   1.000  N
  N5       1.0000 0.20110  0.97220  0.08317  Biso   1.000  N
  N6       1.0000 0.11290  0.94760  0.10693  Biso   1.000  N
  N7       1.0000 0.24290  0.15290  0.08195  Biso   1.000  N
  N8       1.0000 0.15620  0.13040  0.10493  Biso   1.000  N
  C1       1.0000 0.23680  0.97960  0.97388  Biso   1.000  C
  H5       1.0000 0.19860  0.98370  0.97700  Biso   1.000  H
  C2       1.0000 0.33750  0.99710  0.97559  Biso   1.000  C
  C3       1.0000 0.40320  0.01530  0.98091  Biso   1.000  C
  H6       1.0000 0.42980  0.05430  0.98980  Biso   1.000  H
  C4       1.0000 0.43120  0.97930  0.97147  Biso   1.000  C
  H7       1.0000 0.48010  0.99510  0.97690  Biso   1.000  H
  C5       1.0000 0.39340  0.92500  0.95670  Biso   1.000  C
  H8       1.0000 0.40830  0.89980  0.94930  Biso   1.000  H
  C6       1.0000 0.32770  0.90670  0.95138  Biso   1.000  C
  H9       1.0000 0.30010  0.86740  0.94210  Biso   1.000  H
  C7       1.0000 0.29980  0.94280  0.96082  Biso   1.000  C
  C8       1.0000 0.28750  0.17370  0.97747  Biso   1.000  C
  H10      1.0000 0.24460  0.15490  0.98460  Biso   1.000  H
  C9       1.0000 0.38490  0.19330  0.97030  Biso   1.000  C
  C10      1.0000 0.44630  0.19720  0.96980  Biso   1.000  C
  H11      1.0000 0.45890  0.17420  0.98070  Biso   1.000  H
  C11      1.0000 0.48950  0.23890  0.95140  Biso   1.000  C
  H12      1.0000 0.53320  0.24470  0.95040  Biso   1.000  H
  C12      1.0000 0.47170  0.27050  0.93530  Biso   1.000  C
  H13      1.0000 0.50180  0.29460  0.92280  Biso   1.000  H
  C13      1.0000 0.41280  0.26910  0.93640  Biso   1.000  C
  H14      1.0000 0.40220  0.29390  0.92560  Biso   1.000  H
  C14      1.0000 0.36740  0.22910  0.95435  Biso   1.000  C
  C15      1.0000 0.13950  0.95940  0.08491  Biso   1.000  C
  H15      1.0000 0.11450  0.95850  0.07140  Biso   1.000  H
  C16      1.0000 0.21860  0.96940  0.10649  Biso   1.000  C
  C17      1.0000 0.27990  0.97890  0.11522  Biso   1.000  C
  H16      1.0000 0.31690  0.98920  0.10520  Biso   1.000  H
  C18      1.0000 0.28240  0.97200  0.13990  Biso   1.000  C
  H17      1.0000 0.32220  0.97810  0.14710  Biso   1.000  H
  C19      1.0000 0.22430  0.95550  0.15420  Biso   1.000  C
  H18      1.0000 0.22640  0.94860  0.17070  Biso   1.000  H
  C20      1.0000 0.16680  0.94940  0.14529  Biso   1.000  C
  H19      1.0000 0.13050  0.94260  0.15520  Biso   1.000  H
  C21      1.0000 0.16480  0.95390  0.12070  Biso   1.000  C
  C22      1.0000 0.17650  0.12240  0.08451  Biso   1.000  C
  H20      1.0000 0.14650  0.09670  0.07220  Biso   1.000  H
  C23      1.0000 0.26760  0.20100  0.09980  Biso   1.000  C
  C24      1.0000 0.32850  0.25910  0.10330  Biso   1.000  C
  H21      1.0000 0.36530  0.26890  0.09320  Biso   1.000  H
  C25      1.0000 0.33560  0.30280  0.12150  Biso   1.000  C
  H22      1.0000 0.37720  0.34250  0.12390  Biso   1.000  H
  C26      1.0000 0.28170  0.28850  0.13620  Biso   1.000  C
  H23      1.0000 0.28650  0.31830  0.14860  Biso   1.000  H
  C27      1.0000 0.22080  0.23040  0.13270  Biso   1.000  C
  H24      1.0000 0.18400  0.22060  0.14270  Biso   1.000  H
  C28      1.0000 0.21370  0.18670  0.11450  Biso   1.000  C
  C29      1.0000 0.26400  0.16390  0.10603  Biso   1.000  C
  C30      1.0000 0.32730  0.19800  0.11610  Biso   1.000  C
  H25      1.0000 0.36560  0.20880  0.10680  Biso   1.000  H
  C31      1.0000 0.33450  0.21630  0.13990  Biso   1.000  C
  H26      1.0000 0.37630  0.23860  0.14590  Biso   1.000  H
  C32      1.0000 0.27850  0.20040  0.15362  Biso   1.000  C
  H27      1.0000 0.28280  0.20850  0.17000  Biso   1.000  H
  C33      1.0000 0.21520  0.16620  0.14350  Biso   1.000  C
  H28      1.0000 0.17680  0.15540  0.15290  Biso   1.000  H
  C34      1.0000 0.20790  0.14800  0.11970  Biso   1.000  C
  C35      1.0000 0.46090  0.11220  0.11400  Biso   1.000  C
  H29      1.0000 0.45590  0.15010  0.11140  Biso   1.000  H
  C36      1.0000 0.47890  0.09610  0.13540  Biso   1.000  C
  H30      1.0000 0.48930  0.12660  0.14820  Biso   1.000  H
  C37      1.0000 0.48290  0.04050  0.13970  Biso   1.000  C
  H31      1.0000 0.48930  0.03190  0.15570  Biso   1.000  H
  C38      1.0000 0.47860  0.99570  0.12291  Biso   1.000  C
  H32      1.0000 0.48710  0.96010  0.12570  Biso   1.000  H
  N9       1.0000 0.44810  0.97320  0.08008  Biso   1.000  N
  H33      1.0000 0.45030  0.93650  0.07820  Biso   1.000  H
  C39      1.0000 0.43200  0.00610  0.06215  Biso   1.000  C
  H34      1.0000 0.42180  0.99240  0.04610  Biso   1.000  H
  N10      1.0000 0.43400  0.06310  0.07250  Biso   1.000  N
  C40      1.0000 0.45120  0.06540  0.09682  Biso   1.000  C
  C41      1.0000 0.45990  0.00980  0.10150  Biso   1.000  C
  Cu6      1.0000 0.90951  0.23286  0.00771  Biso   1.000  Cu
  Cu7      1.0000 0.99944  0.25864  0.05512  Biso   1.000  Cu
  Cu8      1.0000 0.84363  0.14217  0.05511  Biso   1.000  Cu
  Cu9      1.0000 0.88105  0.29103  0.05347  Biso   1.000  Cu
  Cu10     1.0000 0.06394  0.09096  0.11702  Biso   1.000  Cu
  O5       1.0000 0.96480  0.29850  0.03184  Biso   1.000  O
  H35      1.0000 0.98330  0.33870  0.02940  Biso   1.000  H
  O6       1.0000 0.84080  0.20780  0.03316  Biso   1.000  O
  H36      1.0000 0.80380  0.19750  0.02800  Biso   1.000  H
  O7       1.0000 0.91030  0.22810  0.06980  Biso   1.000  O
  H37      1.0000 0.90930  0.23310  0.08410  Biso   1.000  H
  O8       1.0000 0.97840  0.05020  0.13509  Biso   1.000  O
  H38      1.0000 0.96230  0.07340  0.13980  Biso   1.000  H
  N11      1.0000 0.98030  0.27740  0.98382  Biso   1.000  N
  N12      1.0000 0.06650  0.30210  0.95929  Biso   1.000  N
  N13      1.0000 0.84150  0.17360  0.98469  Biso   1.000  N
  N14      1.0000 0.78350  0.08900  0.95983  Biso   1.000  N
  N15      1.0000 0.02780  0.22890  0.08317  Biso   1.000  N
  N16      1.0000 0.05240  0.16530  0.10693  Biso   1.000  N
  N17      1.0000 0.84710  0.09000  0.08195  Biso   1.000  N
  N18      1.0000 0.86960  0.02580  0.10493  Biso   1.000  N
  C42      1.0000 0.02040  0.25720  0.97388  Biso   1.000  C
  H39      1.0000 0.01630  0.21490  0.97700  Biso   1.000  H
  C43      1.0000 0.00290  0.34040  0.97559  Biso   1.000  C
  C44      1.0000 0.98470  0.38790  0.98091  Biso   1.000  C
  H40      1.0000 0.94570  0.37550  0.98980  Biso   1.000  H
  C45      1.0000 0.02070  0.45190  0.97147  Biso   1.000  C
  H41      1.0000 0.00490  0.48500  0.97690  Biso   1.000  H
  C46      1.0000 0.07500  0.46840  0.95670  Biso   1.000  C
  H42      1.0000 0.10020  0.50850  0.94930  Biso   1.000  H
  C47      1.0000 0.09330  0.42100  0.95138  Biso   1.000  C
  H43      1.0000 0.13260  0.43270  0.94210  Biso   1.000  H
  C48      1.0000 0.05720  0.35700  0.96082  Biso   1.000  C
  C49      1.0000 0.82630  0.11380  0.97747  Biso   1.000  C
  H44      1.0000 0.84510  0.08970  0.98460  Biso   1.000  H
  C50      1.0000 0.80670  0.19160  0.97030  Biso   1.000  C
  C51      1.0000 0.80280  0.24910  0.96980  Biso   1.000  C
  H45      1.0000 0.82580  0.28470  0.98070  Biso   1.000  H
  C52      1.0000 0.76110  0.25060  0.95140  Biso   1.000  C
  H46      1.0000 0.75530  0.28850  0.95040  Biso   1.000  H
  C53      1.0000 0.72950  0.20120  0.93530  Biso   1.000  C
  H47      1.0000 0.70540  0.20720  0.92280  Biso   1.000  H
  C54      1.0000 0.73090  0.14370  0.93640  Biso   1.000  C
  H48      1.0000 0.70610  0.10830  0.92560  Biso   1.000  H
  C55      1.0000 0.77090  0.13830  0.95435  Biso   1.000  C
  C56      1.0000 0.04060  0.18010  0.08491  Biso   1.000  C
  H49      1.0000 0.04150  0.15600  0.07140  Biso   1.000  H
  C57      1.0000 0.03060  0.24920  0.10649  Biso   1.000  C
  C58      1.0000 0.02110  0.30100  0.11522  Biso   1.000  C
  H50      1.0000 0.01080  0.32770  0.10520  Biso   1.000  H
  C59      1.0000 0.02800  0.31040  0.13990  Biso   1.000  C
  H51      1.0000 0.02190  0.34410  0.14710  Biso   1.000  H
  C60      1.0000 0.04450  0.26880  0.15420  Biso   1.000  C
  H52      1.0000 0.05140  0.27780  0.17070  Biso   1.000  H
  C61      1.0000 0.05060  0.21740  0.14529  Biso   1.000  C
  H53      1.0000 0.05740  0.18790  0.15520  Biso   1.000  H
  C62      1.0000 0.04610  0.21090  0.12070  Biso   1.000  C
  C63      1.0000 0.87760  0.05410  0.08451  Biso   1.000  C
  H54      1.0000 0.90330  0.04980  0.07220  Biso   1.000  H
  C64      1.0000 0.79900  0.06660  0.09980  Biso   1.000  C
  C65      1.0000 0.74090  0.06940  0.10330  Biso   1.000  C
  H55      1.0000 0.73110  0.09640  0.09320  Biso   1.000  H
  C66      1.0000 0.69720  0.03280  0.12150  Biso   1.000  C
  H56      1.0000 0.65750  0.03470  0.12390  Biso   1.000  H
  C67      1.0000 0.71150  0.99320  0.13620  Biso   1.000  C
  H57      1.0000 0.68170  0.96820  0.14860  Biso   1.000  H
  C68      1.0000 0.76960  0.99040  0.13270  Biso   1.000  C
  H58      1.0000 0.77940  0.96340  0.14270  Biso   1.000  H
  C69      1.0000 0.81330  0.02700  0.11450  Biso   1.000  C
  C70      1.0000 0.83610  0.10010  0.10603  Biso   1.000  C
  C71      1.0000 0.80200  0.12930  0.11610  Biso   1.000  C
  H59      1.0000 0.79120  0.15680  0.10680  Biso   1.000  H
  C72      1.0000 0.78370  0.11820  0.13990  Biso   1.000  C
  H60      1.0000 0.76140  0.13770  0.14590  Biso   1.000  H
  C73      1.0000 0.79960  0.07810  0.15362  Biso   1.000  C
  H61      1.0000 0.79150  0.07430  0.17000  Biso   1.000  H
  C74      1.0000 0.83380  0.04900  0.14350  Biso   1.000  C
  H62      1.0000 0.84460  0.02140  0.15290  Biso   1.000  H
  C75      1.0000 0.85200  0.05990  0.11970  Biso   1.000  C
  C76      1.0000 0.88780  0.34870  0.11400  Biso   1.000  C
  H63      1.0000 0.84990  0.30580  0.11140  Biso   1.000  H
  C77      1.0000 0.90390  0.38280  0.13540  Biso   1.000  C
  H64      1.0000 0.87340  0.36270  0.14820  Biso   1.000  H
  C78      1.0000 0.95950  0.44240  0.13970  Biso   1.000  C
  H65      1.0000 0.96810  0.45740  0.15570  Biso   1.000  H
  C79      1.0000 0.00430  0.48290  0.12291  Biso   1.000  C
  H66      1.0000 0.03990  0.52700  0.12570  Biso   1.000  H
  N19      1.0000 0.02680  0.47490  0.08008  Biso   1.000  N
  H67      1.0000 0.06350  0.51380  0.07820  Biso   1.000  H
  C80      1.0000 0.99390  0.42590  0.06215  Biso   1.000  C
  H68      1.0000 0.00760  0.42940  0.04610  Biso   1.000  H
  N20      1.0000 0.93690  0.37090  0.07250  Biso   1.000  N
  C81      1.0000 0.93460  0.38580  0.09682  Biso   1.000  C
  C82      1.0000 0.99020  0.45010  0.10150  Biso   1.000  C
  Cu11     1.0000 0.76714  0.67665  0.00771  Biso   1.000  Cu
  Cu12     1.0000 0.74136  0.74080  0.05512  Biso   1.000  Cu
  Cu13     1.0000 0.85783  0.70146  0.05511  Biso   1.000  Cu
  Cu14     1.0000 0.70897  0.59002  0.05347  Biso   1.000  Cu
  Cu15     1.0000 0.90904  0.97298  0.11702  Biso   1.000  Cu
  O9       1.0000 0.70150  0.66630  0.03184  Biso   1.000  O
  H69      1.0000 0.66130  0.64460  0.02940  Biso   1.000  H
  O10      1.0000 0.79220  0.63300  0.03316  Biso   1.000  O
  H70      1.0000 0.80250  0.60630  0.02800  Biso   1.000  H
  O11      1.0000 0.77190  0.68220  0.06980  Biso   1.000  O
  H71      1.0000 0.76690  0.67620  0.08410  Biso   1.000  H
  O12      1.0000 0.94980  0.92820  0.13509  Biso   1.000  O
  H72      1.0000 0.92660  0.88890  0.13980  Biso   1.000  H
  N21      1.0000 0.72260  0.70290  0.98382  Biso   1.000  N
  N22      1.0000 0.69790  0.76440  0.95929  Biso   1.000  N
  N23      1.0000 0.82640  0.66790  0.98469  Biso   1.000  N
  N24      1.0000 0.91100  0.69450  0.95983  Biso   1.000  N
  N25      1.0000 0.77110  0.79890  0.08317  Biso   1.000  N
  N26      1.0000 0.83470  0.88710  0.10693  Biso   1.000  N
  N27      1.0000 0.91000  0.75710  0.08195  Biso   1.000  N
  N28      1.0000 0.97420  0.84380  0.10493  Biso   1.000  N
  C83      1.0000 0.74280  0.76320  0.97388  Biso   1.000  C
  H73      1.0000 0.78510  0.80140  0.97700  Biso   1.000  H
  C84      1.0000 0.65960  0.66250  0.97559  Biso   1.000  C
  C85      1.0000 0.61210  0.59680  0.98091  Biso   1.000  C
  H74      1.0000 0.62450  0.57020  0.98980  Biso   1.000  H
  C86      1.0000 0.54810  0.56880  0.97147  Biso   1.000  C
  H75      1.0000 0.51500  0.51990  0.97690  Biso   1.000  H
  C87      1.0000 0.53160  0.60660  0.95670  Biso   1.000  C
  H76      1.0000 0.49150  0.59170  0.94930  Biso   1.000  H
  C88      1.0000 0.57900  0.67230  0.95138  Biso   1.000  C
  H77      1.0000 0.56730  0.69990  0.94210  Biso   1.000  H
  C89      1.0000 0.64300  0.70020  0.96082  Biso   1.000  C
  C90      1.0000 0.88620  0.71250  0.97747  Biso   1.000  C
  H78      1.0000 0.91030  0.75540  0.98460  Biso   1.000  H
  C91      1.0000 0.80840  0.61510  0.97030  Biso   1.000  C
  C92      1.0000 0.75090  0.55370  0.96980  Biso   1.000  C
  H79      1.0000 0.71530  0.54110  0.98070  Biso   1.000  H
  C93      1.0000 0.74940  0.51050  0.95140  Biso   1.000  C
  H80      1.0000 0.71150  0.46680  0.95040  Biso   1.000  H
  C94      1.0000 0.79880  0.52830  0.93530  Biso   1.000  C
  H81      1.0000 0.79280  0.49820  0.92280  Biso   1.000  H
  C95      1.0000 0.85630  0.58720  0.93640  Biso   1.000  C
  H82      1.0000 0.89170  0.59780  0.92560  Biso   1.000  H
  C96      1.0000 0.86170  0.63260  0.95435  Biso   1.000  C
  C97      1.0000 0.81990  0.86050  0.08491  Biso   1.000  C
  H83      1.0000 0.84400  0.88550  0.07140  Biso   1.000  H
  C98      1.0000 0.75080  0.78140  0.10649  Biso   1.000  C
  C99      1.0000 0.69900  0.72010  0.11522  Biso   1.000  C
  H84      1.0000 0.67230  0.68310  0.10520  Biso   1.000  H
  C100     1.0000 0.68960  0.71760  0.13990  Biso   1.000  C
  H85      1.0000 0.65590  0.67780  0.14710  Biso   1.000  H
  C101     1.0000 0.73120  0.77570  0.15420  Biso   1.000  C
  H86      1.0000 0.72220  0.77360  0.17070  Biso   1.000  H
  C102     1.0000 0.78260  0.83320  0.14529  Biso   1.000  C
  H87      1.0000 0.81210  0.86950  0.15520  Biso   1.000  H
  C103     1.0000 0.78910  0.83520  0.12070  Biso   1.000  C
  C104     1.0000 0.94590  0.82350  0.08451  Biso   1.000  C
  H88      1.0000 0.95020  0.85350  0.07220  Biso   1.000  H
  C105     1.0000 0.93340  0.73240  0.09980  Biso   1.000  C
  C106     1.0000 0.93060  0.67150  0.10330  Biso   1.000  C
  H89      1.0000 0.90360  0.63470  0.09320  Biso   1.000  H
  C107     1.0000 0.96720  0.66440  0.12150  Biso   1.000  C
  H90      1.0000 0.96530  0.62280  0.12390  Biso   1.000  H
  C108     1.0000 0.00680  0.71830  0.13620  Biso   1.000  C
  H91      1.0000 0.03180  0.71350  0.14860  Biso   1.000  H
  C109     1.0000 0.00960  0.77920  0.13270  Biso   1.000  C
  H92      1.0000 0.03660  0.81600  0.14270  Biso   1.000  H
  C110     1.0000 0.97300  0.78630  0.11450  Biso   1.000  C
  C111     1.0000 0.89990  0.73600  0.10603  Biso   1.000  C
  C112     1.0000 0.87070  0.67270  0.11610  Biso   1.000  C
  H93      1.0000 0.84320  0.63440  0.10680  Biso   1.000  H
  C113     1.0000 0.88180  0.66550  0.13990  Biso   1.000  C
  H94      1.0000 0.86230  0.62370  0.14590  Biso   1.000  H
  C114     1.0000 0.92190  0.72150  0.15362  Biso   1.000  C
  H95      1.0000 0.92570  0.71720  0.17000  Biso   1.000  H
  C115     1.0000 0.95100  0.78480  0.14350  Biso   1.000  C
  H96      1.0000 0.97860  0.82320  0.15290  Biso   1.000  H
  C116     1.0000 0.94010  0.79210  0.11970  Biso   1.000  C
  C117     1.0000 0.65130  0.53910  0.11400  Biso   1.000  C
  H97      1.0000 0.69420  0.54410  0.11140  Biso   1.000  H
  C118     1.0000 0.61720  0.52110  0.13540  Biso   1.000  C
  H98      1.0000 0.63730  0.51070  0.14820  Biso   1.000  H
  C119     1.0000 0.55760  0.51710  0.13970  Biso   1.000  C
  H99      1.0000 0.54260  0.51070  0.15570  Biso   1.000  H
  C120     1.0000 0.51710  0.52140  0.12291  Biso   1.000  C
  H100     1.0000 0.47300  0.51290  0.12570  Biso   1.000  H
  N29      1.0000 0.52510  0.55190  0.08008  Biso   1.000  N
  H101     1.0000 0.48620  0.54970  0.07820  Biso   1.000  H
  C121     1.0000 0.57410  0.56800  0.06215  Biso   1.000  C
  H102     1.0000 0.57060  0.57820  0.04610  Biso   1.000  H
  N30      1.0000 0.62910  0.56600  0.07250  Biso   1.000  N
  C122     1.0000 0.61420  0.54880  0.09682  Biso   1.000  C
  C123     1.0000 0.54990  0.54010  0.10150  Biso   1.000  C
  Cu16     1.0000 0.67665  0.90951  0.99229  Biso   1.000  Cu
  Cu17     1.0000 0.74080  0.99944  0.94488  Biso   1.000  Cu
  Cu18     1.0000 0.70146  0.84363  0.94489  Biso   1.000  Cu
  Cu19     1.0000 0.59002  0.88105  0.94653  Biso   1.000  Cu
  Cu20     1.0000 0.97298  0.06394  0.88298  Biso   1.000  Cu
  O13      1.0000 0.66630  0.96480  0.96816  Biso   1.000  O
  H103     1.0000 0.64460  0.98330  0.97060  Biso   1.000  H
  O14      1.0000 0.63300  0.84080  0.96684  Biso   1.000  O
  H104     1.0000 0.60630  0.80380  0.97200  Biso   1.000  H
  O15      1.0000 0.68220  0.91030  0.93020  Biso   1.000  O
  H105     1.0000 0.67620  0.90930  0.91590  Biso   1.000  H
  O16      1.0000 0.92820  0.97840  0.86491  Biso   1.000  O
  H106     1.0000 0.88890  0.96230  0.86020  Biso   1.000  H
  N31      1.0000 0.70290  0.98030  0.01618  Biso   1.000  N
  N32      1.0000 0.76440  0.06650  0.04071  Biso   1.000  N
  N33      1.0000 0.66790  0.84150  0.01531  Biso   1.000  N
  N34      1.0000 0.69450  0.78350  0.04017  Biso   1.000  N
  N35      1.0000 0.79890  0.02780  0.91683  Biso   1.000  N
  N36      1.0000 0.88710  0.05240  0.89307  Biso   1.000  N
  N37      1.0000 0.75710  0.84710  0.91805  Biso   1.000  N
  N38      1.0000 0.84380  0.86960  0.89507  Biso   1.000  N
  C124     1.0000 0.76320  0.02040  0.02612  Biso   1.000  C
  H107     1.0000 0.80140  0.01630  0.02300  Biso   1.000  H
  C125     1.0000 0.66250  0.00290  0.02441  Biso   1.000  C
  C126     1.0000 0.59680  0.98470  0.01909  Biso   1.000  C
  H108     1.0000 0.57020  0.94570  0.01020  Biso   1.000  H
  C127     1.0000 0.56880  0.02070  0.02853  Biso   1.000  C
  H109     1.0000 0.51990  0.00490  0.02310  Biso   1.000  H
  C128     1.0000 0.60660  0.07500  0.04330  Biso   1.000  C
  H110     1.0000 0.59170  0.10020  0.05070  Biso   1.000  H
  C129     1.0000 0.67230  0.09330  0.04862  Biso   1.000  C
  H111     1.0000 0.69990  0.13260  0.05790  Biso   1.000  H
  C130     1.0000 0.70020  0.05720  0.03918  Biso   1.000  C
  C131     1.0000 0.71250  0.82630  0.02253  Biso   1.000  C
  H112     1.0000 0.75540  0.84510  0.01540  Biso   1.000  H
  C132     1.0000 0.61510  0.80670  0.02970  Biso   1.000  C
  C133     1.0000 0.55370  0.80280  0.03020  Biso   1.000  C
  H113     1.0000 0.54110  0.82580  0.01930  Biso   1.000  H
  C134     1.0000 0.51050  0.76110  0.04860  Biso   1.000  C
  H114     1.0000 0.46680  0.75530  0.04960  Biso   1.000  H
  C135     1.0000 0.52830  0.72950  0.06470  Biso   1.000  C
  H115     1.0000 0.49820  0.70540  0.07720  Biso   1.000  H
  C136     1.0000 0.58720  0.73090  0.06360  Biso   1.000  C
  H116     1.0000 0.59780  0.70610  0.07440  Biso   1.000  H
  C137     1.0000 0.63260  0.77090  0.04565  Biso   1.000  C
  C138     1.0000 0.86050  0.04060  0.91509  Biso   1.000  C
  H117     1.0000 0.88550  0.04150  0.92860  Biso   1.000  H
  C139     1.0000 0.78140  0.03060  0.89351  Biso   1.000  C
  C140     1.0000 0.72010  0.02110  0.88478  Biso   1.000  C
  H118     1.0000 0.68310  0.01080  0.89480  Biso   1.000  H
  C141     1.0000 0.71760  0.02800  0.86010  Biso   1.000  C
  H119     1.0000 0.67780  0.02190  0.85290  Biso   1.000  H
  C142     1.0000 0.77570  0.04450  0.84580  Biso   1.000  C
  H120     1.0000 0.77360  0.05140  0.82930  Biso   1.000  H
  C143     1.0000 0.83320  0.05060  0.85471  Biso   1.000  C
  H121     1.0000 0.86950  0.05740  0.84480  Biso   1.000  H
  C144     1.0000 0.83520  0.04610  0.87930  Biso   1.000  C
  C145     1.0000 0.82350  0.87760  0.91549  Biso   1.000  C
  H122     1.0000 0.85350  0.90330  0.92780  Biso   1.000  H
  C146     1.0000 0.73240  0.79900  0.90020  Biso   1.000  C
  C147     1.0000 0.67150  0.74090  0.89670  Biso   1.000  C
  H123     1.0000 0.63470  0.73110  0.90680  Biso   1.000  H
  C148     1.0000 0.66440  0.69720  0.87850  Biso   1.000  C
  H124     1.0000 0.62280  0.65750  0.87610  Biso   1.000  H
  C149     1.0000 0.71830  0.71150  0.86380  Biso   1.000  C
  H125     1.0000 0.71350  0.68170  0.85140  Biso   1.000  H
  C150     1.0000 0.77920  0.76960  0.86730  Biso   1.000  C
  H126     1.0000 0.81600  0.77940  0.85730  Biso   1.000  H
  C151     1.0000 0.78630  0.81330  0.88550  Biso   1.000  C
  C152     1.0000 0.73600  0.83610  0.89397  Biso   1.000  C
  C153     1.0000 0.67270  0.80200  0.88390  Biso   1.000  C
  H127     1.0000 0.63440  0.79120  0.89320  Biso   1.000  H
  C154     1.0000 0.66550  0.78370  0.86010  Biso   1.000  C
  H128     1.0000 0.62370  0.76140  0.85410  Biso   1.000  H
  C155     1.0000 0.72150  0.79960  0.84638  Biso   1.000  C
  H129     1.0000 0.71720  0.79150  0.83000  Biso   1.000  H
  C156     1.0000 0.78480  0.83380  0.85650  Biso   1.000  C
  H130     1.0000 0.82320  0.84460  0.84710  Biso   1.000  H
  C157     1.0000 0.79210  0.85200  0.88030  Biso   1.000  C
  C158     1.0000 0.53910  0.88780  0.88600  Biso   1.000  C
  H131     1.0000 0.54410  0.84990  0.88860  Biso   1.000  H
  C159     1.0000 0.52110  0.90390  0.86460  Biso   1.000  C
  H132     1.0000 0.51070  0.87340  0.85180  Biso   1.000  H
  C160     1.0000 0.51710  0.95950  0.86030  Biso   1.000  C
  H133     1.0000 0.51070  0.96810  0.84430  Biso   1.000  H
  C161     1.0000 0.52140  0.00430  0.87709  Biso   1.000  C
  H134     1.0000 0.51290  0.03990  0.87430  Biso   1.000  H
  N39      1.0000 0.55190  0.02680  0.91992  Biso   1.000  N
  H135     1.0000 0.54970  0.06350  0.92180  Biso   1.000  H
  C162     1.0000 0.56800  0.99390  0.93785  Biso   1.000  C
  H136     1.0000 0.57820  0.00760  0.95390  Biso   1.000  H
  N40      1.0000 0.56600  0.93690  0.92750  Biso   1.000  N
  C163     1.0000 0.54880  0.93460  0.90318  Biso   1.000  C
  C164     1.0000 0.54010  0.99020  0.89850  Biso   1.000  C
  Cu21     1.0000 0.09049  0.76714  0.99229  Biso   1.000  Cu
  Cu22     1.0000 0.00056  0.74136  0.94488  Biso   1.000  Cu
  Cu23     1.0000 0.15637  0.85783  0.94489  Biso   1.000  Cu
  Cu24     1.0000 0.11895  0.70897  0.94653  Biso   1.000  Cu
  Cu25     1.0000 0.93606  0.90904  0.88298  Biso   1.000  Cu
  O17      1.0000 0.03520  0.70150  0.96816  Biso   1.000  O
  H137     1.0000 0.01670  0.66130  0.97060  Biso   1.000  H
  O18      1.0000 0.15920  0.79220  0.96684  Biso   1.000  O
  H138     1.0000 0.19620  0.80250  0.97200  Biso   1.000  H
  O19      1.0000 0.08970  0.77190  0.93020  Biso   1.000  O
  H139     1.0000 0.09070  0.76690  0.91590  Biso   1.000  H
  O20      1.0000 0.02160  0.94980  0.86491  Biso   1.000  O
  H140     1.0000 0.03770  0.92660  0.86020  Biso   1.000  H
  N41      1.0000 0.01970  0.72260  0.01618  Biso   1.000  N
  N42      1.0000 0.93350  0.69790  0.04071  Biso   1.000  N
  N43      1.0000 0.15850  0.82640  0.01531  Biso   1.000  N
  N44      1.0000 0.21650  0.91100  0.04017  Biso   1.000  N
  N45      1.0000 0.97220  0.77110  0.91683  Biso   1.000  N
  N46      1.0000 0.94760  0.83470  0.89307  Biso   1.000  N
  N47      1.0000 0.15290  0.91000  0.91805  Biso   1.000  N
  N48      1.0000 0.13040  0.97420  0.89507  Biso   1.000  N
  C165     1.0000 0.97960  0.74280  0.02612  Biso   1.000  C
  H141     1.0000 0.98370  0.78510  0.02300  Biso   1.000  H
  C166     1.0000 0.99710  0.65960  0.02441  Biso   1.000  C
  C167     1.0000 0.01530  0.61210  0.01909  Biso   1.000  C
  H142     1.0000 0.05430  0.62450  0.01020  Biso   1.000  H
  C168     1.0000 0.97930  0.54810  0.02853  Biso   1.000  C
  H143     1.0000 0.99510  0.51500  0.02310  Biso   1.000  H
  C169     1.0000 0.92500  0.53160  0.04330  Biso   1.000  C
  H144     1.0000 0.89980  0.49150  0.05070  Biso   1.000  H
  C170     1.0000 0.90670  0.57900  0.04862  Biso   1.000  C
  H145     1.0000 0.86740  0.56730  0.05790  Biso   1.000  H
  C171     1.0000 0.94280  0.64300  0.03918  Biso   1.000  C
  C172     1.0000 0.17370  0.88620  0.02253  Biso   1.000  C
  H146     1.0000 0.15490  0.91030  0.01540  Biso   1.000  H
  C173     1.0000 0.19330  0.80840  0.02970  Biso   1.000  C
  C174     1.0000 0.19720  0.75090  0.03020  Biso   1.000  C
  H147     1.0000 0.17420  0.71530  0.01930  Biso   1.000  H
  C175     1.0000 0.23890  0.74940  0.04860  Biso   1.000  C
  H148     1.0000 0.24470  0.71150  0.04960  Biso   1.000  H
  C176     1.0000 0.27050  0.79880  0.06470  Biso   1.000  C
  H149     1.0000 0.29460  0.79280  0.07720  Biso   1.000  H
  C177     1.0000 0.26910  0.85630  0.06360  Biso   1.000  C
  H150     1.0000 0.29390  0.89170  0.07440  Biso   1.000  H
  C178     1.0000 0.22910  0.86170  0.04565  Biso   1.000  C
  C179     1.0000 0.95940  0.81990  0.91509  Biso   1.000  C
  H151     1.0000 0.95850  0.84400  0.92860  Biso   1.000  H
  C180     1.0000 0.96940  0.75080  0.89351  Biso   1.000  C
  C181     1.0000 0.97890  0.69900  0.88478  Biso   1.000  C
  H152     1.0000 0.98920  0.67230  0.89480  Biso   1.000  H
  C182     1.0000 0.97200  0.68960  0.86010  Biso   1.000  C
  H153     1.0000 0.97810  0.65590  0.85290  Biso   1.000  H
  C183     1.0000 0.95550  0.73120  0.84580  Biso   1.000  C
  H154     1.0000 0.94860  0.72220  0.82930  Biso   1.000  H
  C184     1.0000 0.94940  0.78260  0.85471  Biso   1.000  C
  H155     1.0000 0.94260  0.81210  0.84480  Biso   1.000  H
  C185     1.0000 0.95390  0.78910  0.87930  Biso   1.000  C
  C186     1.0000 0.12240  0.94590  0.91549  Biso   1.000  C
  H156     1.0000 0.09670  0.95020  0.92780  Biso   1.000  H
  C187     1.0000 0.20100  0.93340  0.90020  Biso   1.000  C
  C188     1.0000 0.25910  0.93060  0.89670  Biso   1.000  C
  H157     1.0000 0.26890  0.90360  0.90680  Biso   1.000  H
  C189     1.0000 0.30280  0.96720  0.87850  Biso   1.000  C
  H158     1.0000 0.34250  0.96530  0.87610  Biso   1.000  H
  C190     1.0000 0.28850  0.00680  0.86380  Biso   1.000  C
  H159     1.0000 0.31830  0.03180  0.85140  Biso   1.000  H
  C191     1.0000 0.23040  0.00960  0.86730  Biso   1.000  C
  H160     1.0000 0.22060  0.03660  0.85730  Biso   1.000  H
  C192     1.0000 0.18670  0.97300  0.88550  Biso   1.000  C
  C193     1.0000 0.16390  0.89990  0.89397  Biso   1.000  C
  C194     1.0000 0.19800  0.87070  0.88390  Biso   1.000  C
  H161     1.0000 0.20880  0.84320  0.89320  Biso   1.000  H
  C195     1.0000 0.21630  0.88180  0.86010  Biso   1.000  C
  H162     1.0000 0.23860  0.86230  0.85410  Biso   1.000  H
  C196     1.0000 0.20040  0.92190  0.84638  Biso   1.000  C
  H163     1.0000 0.20850  0.92570  0.83000  Biso   1.000  H
  C197     1.0000 0.16620  0.95100  0.85650  Biso   1.000  C
  H164     1.0000 0.15540  0.97860  0.84710  Biso   1.000  H
  C198     1.0000 0.14800  0.94010  0.88030  Biso   1.000  C
  C199     1.0000 0.11220  0.65130  0.88600  Biso   1.000  C
  H165     1.0000 0.15010  0.69420  0.88860  Biso   1.000  H
  C200     1.0000 0.09610  0.61720  0.86460  Biso   1.000  C
  H166     1.0000 0.12660  0.63730  0.85180  Biso   1.000  H
  C201     1.0000 0.04050  0.55760  0.86030  Biso   1.000  C
  H167     1.0000 0.03190  0.54260  0.84430  Biso   1.000  H
  C202     1.0000 0.99570  0.51710  0.87709  Biso   1.000  C
  H168     1.0000 0.96010  0.47300  0.87430  Biso   1.000  H
  N49      1.0000 0.97320  0.52510  0.91992  Biso   1.000  N
  H169     1.0000 0.93650  0.48620  0.92180  Biso   1.000  H
  C203     1.0000 0.00610  0.57410  0.93785  Biso   1.000  C
  H170     1.0000 0.99240  0.57060  0.95390  Biso   1.000  H
  N50      1.0000 0.06310  0.62910  0.92750  Biso   1.000  N
  C204     1.0000 0.06540  0.61420  0.90318  Biso   1.000  C
  C205     1.0000 0.00980  0.54990  0.89850  Biso   1.000  C
  Cu26     1.0000 0.23286  0.32335  0.99229  Biso   1.000  Cu
  Cu27     1.0000 0.25864  0.25920  0.94488  Biso   1.000  Cu
  Cu28     1.0000 0.14217  0.29854  0.94489  Biso   1.000  Cu
  Cu29     1.0000 0.29103  0.40998  0.94653  Biso   1.000  Cu
  Cu30     1.0000 0.09096  0.02702  0.88298  Biso   1.000  Cu
  O21      1.0000 0.29850  0.33370  0.96816  Biso   1.000  O
  H171     1.0000 0.33870  0.35540  0.97060  Biso   1.000  H
  O22      1.0000 0.20780  0.36700  0.96684  Biso   1.000  O
  H172     1.0000 0.19750  0.39370  0.97200  Biso   1.000  H
  O23      1.0000 0.22810  0.31780  0.93020  Biso   1.000  O
  H173     1.0000 0.23310  0.32380  0.91590  Biso   1.000  H
  O24      1.0000 0.05020  0.07180  0.86491  Biso   1.000  O
  H174     1.0000 0.07340  0.11110  0.86020  Biso   1.000  H
  N51      1.0000 0.27740  0.29710  0.01618  Biso   1.000  N
  N52      1.0000 0.30210  0.23560  0.04071  Biso   1.000  N
  N53      1.0000 0.17360  0.33210  0.01531  Biso   1.000  N
  N54      1.0000 0.08900  0.30550  0.04017  Biso   1.000  N
  N55      1.0000 0.22890  0.20110  0.91683  Biso   1.000  N
  N56      1.0000 0.16530  0.11290  0.89307  Biso   1.000  N
  N57      1.0000 0.09000  0.24290  0.91805  Biso   1.000  N
  N58      1.0000 0.02580  0.15620  0.89507  Biso   1.000  N
  C206     1.0000 0.25720  0.23680  0.02612  Biso   1.000  C
  H175     1.0000 0.21490  0.19860  0.02300  Biso   1.000  H
  C207     1.0000 0.34040  0.33750  0.02441  Biso   1.000  C
  C208     1.0000 0.38790  0.40320  0.01909  Biso   1.000  C
  H176     1.0000 0.37550  0.42980  0.01020  Biso   1.000  H
  C209     1.0000 0.45190  0.43120  0.02853  Biso   1.000  C
  H177     1.0000 0.48500  0.48010  0.02310  Biso   1.000  H
  C210     1.0000 0.46840  0.39340  0.04330  Biso   1.000  C
  H178     1.0000 0.50850  0.40830  0.05070  Biso   1.000  H
  C211     1.0000 0.42100  0.32770  0.04862  Biso   1.000  C
  H179     1.0000 0.43270  0.30010  0.05790  Biso   1.000  H
  C212     1.0000 0.35700  0.29980  0.03918  Biso   1.000  C
  C213     1.0000 0.11380  0.28750  0.02253  Biso   1.000  C
  H180     1.0000 0.08970  0.24460  0.01540  Biso   1.000  H
  C214     1.0000 0.19160  0.38490  0.02970  Biso   1.000  C
  C215     1.0000 0.24910  0.44630  0.03020  Biso   1.000  C
  H181     1.0000 0.28470  0.45890  0.01930  Biso   1.000  H
  C216     1.0000 0.25060  0.48950  0.04860  Biso   1.000  C
  H182     1.0000 0.28850  0.53320  0.04960  Biso   1.000  H
  C217     1.0000 0.20120  0.47170  0.06470  Biso   1.000  C
  H183     1.0000 0.20720  0.50180  0.07720  Biso   1.000  H
  C218     1.0000 0.14370  0.41280  0.06360  Biso   1.000  C
  H184     1.0000 0.10830  0.40220  0.07440  Biso   1.000  H
  C219     1.0000 0.13830  0.36740  0.04565  Biso   1.000  C
  C220     1.0000 0.18010  0.13950  0.91509  Biso   1.000  C
  H185     1.0000 0.15600  0.11450  0.92860  Biso   1.000  H
  C221     1.0000 0.24920  0.21860  0.89351  Biso   1.000  C
  C222     1.0000 0.30100  0.27990  0.88478  Biso   1.000  C
  H186     1.0000 0.32770  0.31690  0.89480  Biso   1.000  H
  C223     1.0000 0.31040  0.28240  0.86010  Biso   1.000  C
  H187     1.0000 0.34410  0.32220  0.85290  Biso   1.000  H
  C224     1.0000 0.26880  0.22430  0.84580  Biso   1.000  C
  H188     1.0000 0.27780  0.22640  0.82930  Biso   1.000  H
  C225     1.0000 0.21740  0.16680  0.85471  Biso   1.000  C
  H189     1.0000 0.18790  0.13050  0.84480  Biso   1.000  H
  C226     1.0000 0.21090  0.16480  0.87930  Biso   1.000  C
  C227     1.0000 0.05410  0.17650  0.91549  Biso   1.000  C
  H190     1.0000 0.04980  0.14650  0.92780  Biso   1.000  H
  C228     1.0000 0.06660  0.26760  0.90020  Biso   1.000  C
  C229     1.0000 0.06940  0.32850  0.89670  Biso   1.000  C
  H191     1.0000 0.09640  0.36530  0.90680  Biso   1.000  H
  C230     1.0000 0.03280  0.33560  0.87850  Biso   1.000  C
  H192     1.0000 0.03470  0.37720  0.87610  Biso   1.000  H
  C231     1.0000 0.99320  0.28170  0.86380  Biso   1.000  C
  H193     1.0000 0.96820  0.28650  0.85140  Biso   1.000  H
  C232     1.0000 0.99040  0.22080  0.86730  Biso   1.000  C
  H194     1.0000 0.96340  0.18400  0.85730  Biso   1.000  H
  C233     1.0000 0.02700  0.21370  0.88550  Biso   1.000  C
  C234     1.0000 0.10010  0.26400  0.89397  Biso   1.000  C
  C235     1.0000 0.12930  0.32730  0.88390  Biso   1.000  C
  H195     1.0000 0.15680  0.36560  0.89320  Biso   1.000  H
  C236     1.0000 0.11820  0.33450  0.86010  Biso   1.000  C
  H196     1.0000 0.13770  0.37630  0.85410  Biso   1.000  H
  C237     1.0000 0.07810  0.27850  0.84638  Biso   1.000  C
  H197     1.0000 0.07430  0.28280  0.83000  Biso   1.000  H
  C238     1.0000 0.04900  0.21520  0.85650  Biso   1.000  C
  H198     1.0000 0.02140  0.17680  0.84710  Biso   1.000  H
  C239     1.0000 0.05990  0.20790  0.88030  Biso   1.000  C
  C240     1.0000 0.34870  0.46090  0.88600  Biso   1.000  C
  H199     1.0000 0.30580  0.45590  0.88860  Biso   1.000  H
  C241     1.0000 0.38280  0.47890  0.86460  Biso   1.000  C
  H200     1.0000 0.36270  0.48930  0.85180  Biso   1.000  H
  C242     1.0000 0.44240  0.48290  0.86030  Biso   1.000  C
  H201     1.0000 0.45740  0.48930  0.84430  Biso   1.000  H
  C243     1.0000 0.48290  0.47860  0.87709  Biso   1.000  C
  H202     1.0000 0.52700  0.48710  0.87430  Biso   1.000  H
  N59      1.0000 0.47490  0.44810  0.91992  Biso   1.000  N
  H203     1.0000 0.51380  0.45030  0.92180  Biso   1.000  H
  C244     1.0000 0.42590  0.43200  0.93785  Biso   1.000  C
  H204     1.0000 0.42940  0.42180  0.95390  Biso   1.000  H
  N60      1.0000 0.37090  0.43400  0.92750  Biso   1.000  N
  C245     1.0000 0.38580  0.45120  0.90318  Biso   1.000  C
  C246     1.0000 0.45010  0.45990  0.89850  Biso   1.000  C
  Cu31     1.0000 0.00000  0.00000  0.16141  Biso   1.000  Cu
  Cu32     1.0000 0.00000  0.00000  0.83859  Biso   1.000  Cu
  Cu33     1.0000 0.99002  0.42382  0.34104  Biso   1.000  Cu
  Cu34     1.0000 0.92587  0.33389  0.38845  Biso   1.000  Cu
  Cu35     1.0000 0.96521  0.48970  0.38844  Biso   1.000  Cu
  Cu36     1.0000 0.07665  0.45228  0.38680  Biso   1.000  Cu
  Cu37     1.0000 0.69369  0.26939  0.45035  Biso   1.000  Cu
  O25      1.0000 0.00037  0.36853  0.36517  Biso   1.000  O
  H205     1.0000 0.02207  0.35003  0.36273  Biso   1.000  H
  O26      1.0000 0.03367  0.49253  0.36649  Biso   1.000  O
  H206     1.0000 0.06037  0.52953  0.36133  Biso   1.000  H
  O27      1.0000 0.98447  0.42303  0.40313  Biso   1.000  O
  H207     1.0000 0.99047  0.42403  0.41743  Biso   1.000  H
  O28      1.0000 0.73847  0.35493  0.46842  Biso   1.000  O
  H208     1.0000 0.77777  0.37103  0.47313  Biso   1.000  H
  N61      1.0000 0.96377  0.35303  0.31715  Biso   1.000  N
  N62      1.0000 0.90227  0.26683  0.29262  Biso   1.000  N
  N63      1.0000 0.99877  0.49183  0.31802  Biso   1.000  N
  N64      1.0000 0.97217  0.54983  0.29316  Biso   1.000  N
  N65      1.0000 0.86777  0.30553  0.41650  Biso   1.000  N
  N66      1.0000 0.77957  0.28093  0.44026  Biso   1.000  N
  N67      1.0000 0.90957  0.48623  0.41528  Biso   1.000  N
  N68      1.0000 0.82287  0.46373  0.43826  Biso   1.000  N
  C247     1.0000 0.90347  0.31293  0.30721  Biso   1.000  C
  H209     1.0000 0.86527  0.31703  0.31033  Biso   1.000  H
  C248     1.0000 0.00417  0.33043  0.30892  Biso   1.000  C
  C249     1.0000 0.06987  0.34863  0.31424  Biso   1.000  C
  H210     1.0000 0.09647  0.38763  0.32313  Biso   1.000  H
  C250     1.0000 0.09787  0.31263  0.30480  Biso   1.000  C
  H211     1.0000 0.14677  0.32843  0.31023  Biso   1.000  H
  C251     1.0000 0.06007  0.25833  0.29003  Biso   1.000  C
  H212     1.0000 0.07497  0.23313  0.28263  Biso   1.000  H
  C252     1.0000 0.99437  0.24003  0.28471  Biso   1.000  C
  H213     1.0000 0.96677  0.20073  0.27543  Biso   1.000  H
  C253     1.0000 0.96647  0.27613  0.29415  Biso   1.000  C
  C254     1.0000 0.95417  0.50703  0.31080  Biso   1.000  C
  H214     1.0000 0.91127  0.48823  0.31793  Biso   1.000  H
  C255     1.0000 0.05157  0.52663  0.30363  Biso   1.000  C
  C256     1.0000 0.11297  0.53053  0.30313  Biso   1.000  C
  H215     1.0000 0.12557  0.50753  0.31403  Biso   1.000  H
  C257     1.0000 0.15617  0.57223  0.28473  Biso   1.000  C
  H216     1.0000 0.19987  0.57803  0.28373  Biso   1.000  H
  C258     1.0000 0.13837  0.60383  0.26863  Biso   1.000  C
  H217     1.0000 0.16847  0.62793  0.25613  Biso   1.000  H
  C259     1.0000 0.07947  0.60243  0.26973  Biso   1.000  C
  H218     1.0000 0.06887  0.62723  0.25893  Biso   1.000  H
  C260     1.0000 0.03407  0.56243  0.28768  Biso   1.000  C
  C261     1.0000 0.80617  0.29273  0.41824  Biso   1.000  C
  H219     1.0000 0.78117  0.29183  0.40473  Biso   1.000  H
  C262     1.0000 0.88527  0.30273  0.43982  Biso   1.000  C
  C263     1.0000 0.94657  0.31223  0.44855  Biso   1.000  C
  H220     1.0000 0.98357  0.32253  0.43853  Biso   1.000  H
  C264     1.0000 0.94907  0.30533  0.47323  Biso   1.000  C
  H221     1.0000 0.98887  0.31143  0.48043  Biso   1.000  H
  C265     1.0000 0.89097  0.28883  0.48753  Biso   1.000  C
  H222     1.0000 0.89307  0.28193  0.50403  Biso   1.000  H
  C266     1.0000 0.83347  0.28273  0.47862  Biso   1.000  C
  H223     1.0000 0.79717  0.27593  0.48853  Biso   1.000  H
  C267     1.0000 0.83147  0.28723  0.45403  Biso   1.000  C
  C268     1.0000 0.84317  0.45573  0.41784  Biso   1.000  C
  H224     1.0000 0.81317  0.43003  0.40553  Biso   1.000  H
  C269     1.0000 0.93427  0.53433  0.43313  Biso   1.000  C
  C270     1.0000 0.99517  0.59243  0.43663  Biso   1.000  C
  H225     1.0000 0.03197  0.60223  0.42653  Biso   1.000  H
  C271     1.0000 0.00227  0.63613  0.45483  Biso   1.000  C
  H226     1.0000 0.04387  0.67583  0.45723  Biso   1.000  H
  C272     1.0000 0.94837  0.62183  0.46953  Biso   1.000  C
  H227     1.0000 0.95317  0.65163  0.48193  Biso   1.000  H
  C273     1.0000 0.88747  0.56373  0.46603  Biso   1.000  C
  H228     1.0000 0.85067  0.55393  0.47603  Biso   1.000  H
  C274     1.0000 0.88037  0.52003  0.44783  Biso   1.000  C
  C275     1.0000 0.93067  0.49723  0.43936  Biso   1.000  C
  C276     1.0000 0.99397  0.53133  0.44943  Biso   1.000  C
  H229     1.0000 0.03227  0.54213  0.44013  Biso   1.000  H
  C277     1.0000 0.00117  0.54963  0.47323  Biso   1.000  C
  H230     1.0000 0.04297  0.57193  0.47923  Biso   1.000  H
  C278     1.0000 0.94517  0.53373  0.48695  Biso   1.000  C
  H231     1.0000 0.94947  0.54183  0.50333  Biso   1.000  H
  C279     1.0000 0.88187  0.49953  0.47683  Biso   1.000  C
  H232     1.0000 0.84347  0.48873  0.48623  Biso   1.000  H
  C280     1.0000 0.87457  0.48133  0.45303  Biso   1.000  C
  C281     1.0000 0.12757  0.44553  0.44733  Biso   1.000  C
  H233     1.0000 0.12257  0.48343  0.44473  Biso   1.000  H
  C282     1.0000 0.14557  0.42943  0.46873  Biso   1.000  C
  H234     1.0000 0.15597  0.45993  0.48153  Biso   1.000  H
  C283     1.0000 0.14957  0.37383  0.47303  Biso   1.000  C
  H235     1.0000 0.15597  0.36523  0.48903  Biso   1.000  H
  C284     1.0000 0.14527  0.32903  0.45624  Biso   1.000  C
  H236     1.0000 0.15377  0.29343  0.45903  Biso   1.000  H
  N69      1.0000 0.11477  0.30653  0.41341  Biso   1.000  N
  H237     1.0000 0.11697  0.26983  0.41153  Biso   1.000  H
  C285     1.0000 0.09867  0.33943  0.39548  Biso   1.000  C
  H238     1.0000 0.08847  0.32573  0.37943  Biso   1.000  H
  N70      1.0000 0.10067  0.39643  0.40583  Biso   1.000  N
  C286     1.0000 0.11787  0.39873  0.43015  Biso   1.000  C
  C287     1.0000 0.12657  0.34313  0.43483  Biso   1.000  C
  Cu38     1.0000 0.57618  0.56619  0.34104  Biso   1.000  Cu
  Cu39     1.0000 0.66611  0.59197  0.38845  Biso   1.000  Cu
  Cu40     1.0000 0.51030  0.47550  0.38844  Biso   1.000  Cu
  Cu41     1.0000 0.54772  0.62436  0.38680  Biso   1.000  Cu
  Cu42     1.0000 0.73061  0.42429  0.45035  Biso   1.000  Cu
  O29      1.0000 0.63147  0.63183  0.36517  Biso   1.000  O
  H239     1.0000 0.64997  0.67203  0.36273  Biso   1.000  H
  O30      1.0000 0.50747  0.54113  0.36649  Biso   1.000  O
  H240     1.0000 0.47047  0.53083  0.36133  Biso   1.000  H
  O31      1.0000 0.57697  0.56143  0.40313  Biso   1.000  O
  H241     1.0000 0.57597  0.56643  0.41743  Biso   1.000  H
  O32      1.0000 0.64507  0.38353  0.46842  Biso   1.000  O
  H242     1.0000 0.62897  0.40673  0.47313  Biso   1.000  H
  N71      1.0000 0.64697  0.61073  0.31715  Biso   1.000  N
  N72      1.0000 0.73317  0.63543  0.29262  Biso   1.000  N
  N73      1.0000 0.50817  0.50693  0.31802  Biso   1.000  N
  N74      1.0000 0.45017  0.42233  0.29316  Biso   1.000  N
  N75      1.0000 0.69447  0.56223  0.41650  Biso   1.000  N
  N76      1.0000 0.71907  0.49863  0.44026  Biso   1.000  N
  N77      1.0000 0.51377  0.42333  0.41528  Biso   1.000  N
  N78      1.0000 0.53627  0.35913  0.43826  Biso   1.000  N
  C288     1.0000 0.68707  0.59053  0.30721  Biso   1.000  C
  H243     1.0000 0.68297  0.54823  0.31033  Biso   1.000  H
  C289     1.0000 0.66957  0.67373  0.30892  Biso   1.000  C
  C290     1.0000 0.65137  0.72123  0.31424  Biso   1.000  C
  H244     1.0000 0.61237  0.70883  0.32313  Biso   1.000  H
  C291     1.0000 0.68737  0.78523  0.30480  Biso   1.000  C
  H245     1.0000 0.67157  0.81833  0.31023  Biso   1.000  H
  C292     1.0000 0.74167  0.80173  0.29003  Biso   1.000  C
  H246     1.0000 0.76687  0.84183  0.28263  Biso   1.000  H
  C293     1.0000 0.75997  0.75433  0.28471  Biso   1.000  C
  H247     1.0000 0.79927  0.76603  0.27543  Biso   1.000  H
  C294     1.0000 0.72387  0.69033  0.29415  Biso   1.000  C
  C295     1.0000 0.49297  0.44713  0.31080  Biso   1.000  C
  H248     1.0000 0.51177  0.42303  0.31793  Biso   1.000  H
  C296     1.0000 0.47337  0.52493  0.30363  Biso   1.000  C
  C297     1.0000 0.46947  0.58243  0.30313  Biso   1.000  C
  H249     1.0000 0.49247  0.61803  0.31403  Biso   1.000  H
  C298     1.0000 0.42777  0.58393  0.28473  Biso   1.000  C
  H250     1.0000 0.42197  0.62183  0.28373  Biso   1.000  H
  C299     1.0000 0.39617  0.53453  0.26863  Biso   1.000  C
  H251     1.0000 0.37207  0.54053  0.25613  Biso   1.000  H
  C300     1.0000 0.39757  0.47703  0.26973  Biso   1.000  C
  H252     1.0000 0.37277  0.44163  0.25893  Biso   1.000  H
  C301     1.0000 0.43757  0.47163  0.28768  Biso   1.000  C
  C302     1.0000 0.70727  0.51343  0.41824  Biso   1.000  C
  H253     1.0000 0.70817  0.48933  0.40473  Biso   1.000  H
  C303     1.0000 0.69727  0.58253  0.43982  Biso   1.000  C
  C304     1.0000 0.68777  0.63433  0.44855  Biso   1.000  C
  H254     1.0000 0.67747  0.66103  0.43853  Biso   1.000  H
  C305     1.0000 0.69467  0.64373  0.47323  Biso   1.000  C
  H255     1.0000 0.68857  0.67743  0.48043  Biso   1.000  H
  C306     1.0000 0.71117  0.60213  0.48753  Biso   1.000  C
  H256     1.0000 0.71807  0.61113  0.50403  Biso   1.000  H
  C307     1.0000 0.71727  0.55073  0.47862  Biso   1.000  C
  H257     1.0000 0.72407  0.52123  0.48853  Biso   1.000  H
  C308     1.0000 0.71277  0.54423  0.45403  Biso   1.000  C
  C309     1.0000 0.54427  0.38743  0.41784  Biso   1.000  C
  H258     1.0000 0.56997  0.38313  0.40553  Biso   1.000  H
  C310     1.0000 0.46567  0.39993  0.43313  Biso   1.000  C
  C311     1.0000 0.40757  0.40273  0.43663  Biso   1.000  C
  H259     1.0000 0.39777  0.42973  0.42653  Biso   1.000  H
  C312     1.0000 0.36387  0.36613  0.45483  Biso   1.000  C
  H260     1.0000 0.32417  0.36803  0.45723  Biso   1.000  H
  C313     1.0000 0.37817  0.32653  0.46953  Biso   1.000  C
  H261     1.0000 0.34837  0.30153  0.48193  Biso   1.000  H
  C314     1.0000 0.43627  0.32373  0.46603  Biso   1.000  C
  H262     1.0000 0.44607  0.29673  0.47603  Biso   1.000  H
  C315     1.0000 0.47997  0.36033  0.44783  Biso   1.000  C
  C316     1.0000 0.50277  0.43343  0.43936  Biso   1.000  C
  C317     1.0000 0.46867  0.46263  0.44943  Biso   1.000  C
  H263     1.0000 0.45787  0.49013  0.44013  Biso   1.000  H
  C318     1.0000 0.45037  0.45153  0.47323  Biso   1.000  C
  H264     1.0000 0.42807  0.47103  0.47923  Biso   1.000  H
  C319     1.0000 0.46627  0.41143  0.48695  Biso   1.000  C
  H265     1.0000 0.45817  0.40763  0.50333  Biso   1.000  H
  C320     1.0000 0.50047  0.38233  0.47683  Biso   1.000  C
  H266     1.0000 0.51127  0.35473  0.48623  Biso   1.000  H
  C321     1.0000 0.51867  0.39323  0.45303  Biso   1.000  C
  C322     1.0000 0.55447  0.68203  0.44733  Biso   1.000  C
  H267     1.0000 0.51657  0.63913  0.44473  Biso   1.000  H
  C323     1.0000 0.57057  0.71613  0.46873  Biso   1.000  C
  H268     1.0000 0.54007  0.69603  0.48153  Biso   1.000  H
  C324     1.0000 0.62617  0.77573  0.47303  Biso   1.000  C
  H269     1.0000 0.63477  0.79073  0.48903  Biso   1.000  H
  C325     1.0000 0.67097  0.81623  0.45624  Biso   1.000  C
  H270     1.0000 0.70657  0.86033  0.45903  Biso   1.000  H
  N79      1.0000 0.69347  0.80823  0.41341  Biso   1.000  N
  H271     1.0000 0.73017  0.84713  0.41153  Biso   1.000  H
  C326     1.0000 0.66057  0.75923  0.39548  Biso   1.000  C
  H272     1.0000 0.67427  0.76273  0.37943  Biso   1.000  H
  N80      1.0000 0.60357  0.70423  0.40583  Biso   1.000  N
  C327     1.0000 0.60127  0.71913  0.43015  Biso   1.000  C
  C328     1.0000 0.65687  0.78343  0.43483  Biso   1.000  C
  Cu43     1.0000 0.43381  0.00998  0.34104  Biso   1.000  Cu
  Cu44     1.0000 0.40803  0.07413  0.38845  Biso   1.000  Cu
  Cu45     1.0000 0.52450  0.03479  0.38844  Biso   1.000  Cu
  Cu46     1.0000 0.37564  0.92335  0.38680  Biso   1.000  Cu
  Cu47     1.0000 0.57571  0.30631  0.45035  Biso   1.000  Cu
  O33      1.0000 0.36817  0.99963  0.36517  Biso   1.000  O
  H273     1.0000 0.32797  0.97793  0.36273  Biso   1.000  H
  O34      1.0000 0.45887  0.96633  0.36649  Biso   1.000  O
  H274     1.0000 0.46917  0.93963  0.36133  Biso   1.000  H
  O35      1.0000 0.43857  0.01553  0.40313  Biso   1.000  O
  H275     1.0000 0.43357  0.00953  0.41743  Biso   1.000  H
  O36      1.0000 0.61647  0.26153  0.46842  Biso   1.000  O
  H276     1.0000 0.59327  0.22223  0.47313  Biso   1.000  H
  N81      1.0000 0.38927  0.03623  0.31715  Biso   1.000  N
  N82      1.0000 0.36457  0.09773  0.29262  Biso   1.000  N
  N83      1.0000 0.49307  0.00123  0.31802  Biso   1.000  N
  N84      1.0000 0.57767  0.02783  0.29316  Biso   1.000  N
  N85      1.0000 0.43777  0.13223  0.41650  Biso   1.000  N
  N86      1.0000 0.50137  0.22043  0.44026  Biso   1.000  N
  N87      1.0000 0.57667  0.09043  0.41528  Biso   1.000  N
  N88      1.0000 0.64087  0.17713  0.43826  Biso   1.000  N
  C329     1.0000 0.40947  0.09653  0.30721  Biso   1.000  C
  H277     1.0000 0.45177  0.13473  0.31033  Biso   1.000  H
  C330     1.0000 0.32627  0.99583  0.30892  Biso   1.000  C
  C331     1.0000 0.27877  0.93013  0.31424  Biso   1.000  C
  H278     1.0000 0.29117  0.90353  0.32313  Biso   1.000  H
  C332     1.0000 0.21477  0.90213  0.30480  Biso   1.000  C
  H279     1.0000 0.18167  0.85323  0.31023  Biso   1.000  H
  C333     1.0000 0.19827  0.93993  0.29003  Biso   1.000  C
  H280     1.0000 0.15817  0.92503  0.28263  Biso   1.000  H
  C334     1.0000 0.24567  0.00563  0.28471  Biso   1.000  C
  H281     1.0000 0.23397  0.03323  0.27543  Biso   1.000  H
  C335     1.0000 0.30967  0.03353  0.29415  Biso   1.000  C
  C336     1.0000 0.55287  0.04583  0.31080  Biso   1.000  C
  H282     1.0000 0.57697  0.08873  0.31793  Biso   1.000  H
  C337     1.0000 0.47507  0.94843  0.30363  Biso   1.000  C
  C338     1.0000 0.41757  0.88703  0.30313  Biso   1.000  C
  H283     1.0000 0.38197  0.87443  0.31403  Biso   1.000  H
  C339     1.0000 0.41607  0.84383  0.28473  Biso   1.000  C
  H284     1.0000 0.37817  0.80013  0.28373  Biso   1.000  H
  C340     1.0000 0.46547  0.86163  0.26863  Biso   1.000  C
  H285     1.0000 0.45947  0.83153  0.25613  Biso   1.000  H
  C341     1.0000 0.52297  0.92053  0.26973  Biso   1.000  C
  H286     1.0000 0.55837  0.93113  0.25893  Biso   1.000  H
  C342     1.0000 0.52837  0.96593  0.28768  Biso   1.000  C
  C343     1.0000 0.48657  0.19383  0.41824  Biso   1.000  C
  H287     1.0000 0.51067  0.21883  0.40473  Biso   1.000  H
  C344     1.0000 0.41747  0.11473  0.43982  Biso   1.000  C
  C345     1.0000 0.36567  0.05343  0.44855  Biso   1.000  C
  H288     1.0000 0.33897  0.01643  0.43853  Biso   1.000  H
  C346     1.0000 0.35627  0.05093  0.47323  Biso   1.000  C
  H289     1.0000 0.32257  0.01113  0.48043  Biso   1.000  H
  C347     1.0000 0.39787  0.10903  0.48753  Biso   1.000  C
  H290     1.0000 0.38887  0.10693  0.50403  Biso   1.000  H
  C348     1.0000 0.44927  0.16653  0.47862  Biso   1.000  C
  H291     1.0000 0.47877  0.20283  0.48853  Biso   1.000  H
  C349     1.0000 0.45577  0.16853  0.45403  Biso   1.000  C
  C350     1.0000 0.61257  0.15683  0.41784  Biso   1.000  C
  H292     1.0000 0.61687  0.18683  0.40553  Biso   1.000  H
  C351     1.0000 0.60007  0.06573  0.43313  Biso   1.000  C
  C352     1.0000 0.59727  0.00483  0.43663  Biso   1.000  C
  H293     1.0000 0.57027  0.96803  0.42653  Biso   1.000  H
  C353     1.0000 0.63387  0.99773  0.45483  Biso   1.000  C
  H294     1.0000 0.63197  0.95613  0.45723  Biso   1.000  H
  C354     1.0000 0.67347  0.05163  0.46953  Biso   1.000  C
  H295     1.0000 0.69847  0.04683  0.48193  Biso   1.000  H
  C355     1.0000 0.67627  0.11253  0.46603  Biso   1.000  C
  H296     1.0000 0.70327  0.14933  0.47603  Biso   1.000  H
  C356     1.0000 0.63967  0.11963  0.44783  Biso   1.000  C
  C357     1.0000 0.56657  0.06933  0.43936  Biso   1.000  C
  C358     1.0000 0.53737  0.00603  0.44943  Biso   1.000  C
  H297     1.0000 0.50987  0.96773  0.44013  Biso   1.000  H
  C359     1.0000 0.54847  0.99883  0.47323  Biso   1.000  C
  H298     1.0000 0.52897  0.95703  0.47923  Biso   1.000  H
  C360     1.0000 0.58857  0.05483  0.48695  Biso   1.000  C
  H299     1.0000 0.59237  0.05053  0.50333  Biso   1.000  H
  C361     1.0000 0.61767  0.11813  0.47683  Biso   1.000  C
  H300     1.0000 0.64527  0.15653  0.48623  Biso   1.000  H
  C362     1.0000 0.60677  0.12543  0.45303  Biso   1.000  C
  C363     1.0000 0.31797  0.87243  0.44733  Biso   1.000  C
  H301     1.0000 0.36087  0.87743  0.44473  Biso   1.000  H
  C364     1.0000 0.28387  0.85443  0.46873  Biso   1.000  C
  H302     1.0000 0.30397  0.84403  0.48153  Biso   1.000  H
  C365     1.0000 0.22427  0.85043  0.47303  Biso   1.000  C
  H303     1.0000 0.20927  0.84403  0.48903  Biso   1.000  H
  C366     1.0000 0.18377  0.85473  0.45624  Biso   1.000  C
  H304     1.0000 0.13967  0.84623  0.45903  Biso   1.000  H
  N89      1.0000 0.19177  0.88523  0.41341  Biso   1.000  N
  H305     1.0000 0.15287  0.88303  0.41153  Biso   1.000  H
  C367     1.0000 0.24077  0.90133  0.39548  Biso   1.000  C
  H306     1.0000 0.23727  0.91153  0.37943  Biso   1.000  H
  N90      1.0000 0.29577  0.89933  0.40583  Biso   1.000  N
  C368     1.0000 0.28087  0.88213  0.43015  Biso   1.000  C
  C369     1.0000 0.21657  0.87343  0.43483  Biso   1.000  C
  Cu48     1.0000 0.34332  0.24284  0.32562  Biso   1.000  Cu
  Cu49     1.0000 0.40747  0.33277  0.27821  Biso   1.000  Cu
  Cu50     1.0000 0.36813  0.17696  0.27822  Biso   1.000  Cu
  Cu51     1.0000 0.25669  0.21438  0.27986  Biso   1.000  Cu
  Cu52     1.0000 0.63965  0.39727  0.21631  Biso   1.000  Cu
  O37      1.0000 0.33297  0.29813  0.30149  Biso   1.000  O
  H307     1.0000 0.31127  0.31663  0.30393  Biso   1.000  H
  O38      1.0000 0.29967  0.17413  0.30017  Biso   1.000  O
  H308     1.0000 0.27297  0.13713  0.30533  Biso   1.000  H
  O39      1.0000 0.34887  0.24363  0.26353  Biso   1.000  O
  H309     1.0000 0.34287  0.24263  0.24923  Biso   1.000  H
  O40      1.0000 0.59487  0.31173  0.19824  Biso   1.000  O
  H310     1.0000 0.55557  0.29563  0.19353  Biso   1.000  H
  N91      1.0000 0.36957  0.31363  0.34951  Biso   1.000  N
  N92      1.0000 0.43107  0.39983  0.37404  Biso   1.000  N
  N93      1.0000 0.33457  0.17483  0.34864  Biso   1.000  N
  N94      1.0000 0.36117  0.11683  0.37350  Biso   1.000  N
  N95      1.0000 0.46557  0.36113  0.25016  Biso   1.000  N
  N96      1.0000 0.55377  0.38573  0.22640  Biso   1.000  N
  N97      1.0000 0.42377  0.18043  0.25138  Biso   1.000  N
  N98      1.0000 0.51047  0.20293  0.22840  Biso   1.000  N
  C370     1.0000 0.42987  0.35373  0.35945  Biso   1.000  C
  H311     1.0000 0.46807  0.34963  0.35633  Biso   1.000  H
  C371     1.0000 0.32917  0.33623  0.35774  Biso   1.000  C
  C372     1.0000 0.26347  0.31803  0.35242  Biso   1.000  C
  H312     1.0000 0.23687  0.27903  0.34353  Biso   1.000  H
  C373     1.0000 0.23547  0.35403  0.36186  Biso   1.000  C
  H313     1.0000 0.18657  0.33823  0.35643  Biso   1.000  H
  C374     1.0000 0.27327  0.40833  0.37663  Biso   1.000  C
  H314     1.0000 0.25837  0.43353  0.38403  Biso   1.000  H
  C375     1.0000 0.33897  0.42663  0.38195  Biso   1.000  C
  H315     1.0000 0.36657  0.46593  0.39123  Biso   1.000  H
  C376     1.0000 0.36687  0.39053  0.37251  Biso   1.000  C
  C377     1.0000 0.37917  0.15963  0.35586  Biso   1.000  C
  H316     1.0000 0.42207  0.17843  0.34873  Biso   1.000  H
  C378     1.0000 0.28177  0.14003  0.36303  Biso   1.000  C
  C379     1.0000 0.22037  0.13613  0.36353  Biso   1.000  C
  H317     1.0000 0.20777  0.15913  0.35263  Biso   1.000  H
  C380     1.0000 0.17717  0.09443  0.38193  Biso   1.000  C
  H318     1.0000 0.13347  0.08863  0.38293  Biso   1.000  H
  C381     1.0000 0.19497  0.06283  0.39803  Biso   1.000  C
  H319     1.0000 0.16487  0.03873  0.41053  Biso   1.000  H
  C382     1.0000 0.25387  0.06423  0.39693  Biso   1.000  C
  H320     1.0000 0.26447  0.03943  0.40773  Biso   1.000  H
  C383     1.0000 0.29927  0.10423  0.37898  Biso   1.000  C
  C384     1.0000 0.52717  0.37393  0.24842  Biso   1.000  C
  H321     1.0000 0.55217  0.37483  0.26193  Biso   1.000  H
  C385     1.0000 0.44807  0.36393  0.22684  Biso   1.000  C
  C386     1.0000 0.38677  0.35443  0.21811  Biso   1.000  C
  H322     1.0000 0.34977  0.34413  0.22813  Biso   1.000  H
  C387     1.0000 0.38427  0.36133  0.19343  Biso   1.000  C
  H323     1.0000 0.34447  0.35523  0.18623  Biso   1.000  H
  C388     1.0000 0.44237  0.37783  0.17913  Biso   1.000  C
  H324     1.0000 0.44027  0.38473  0.16263  Biso   1.000  H
  C389     1.0000 0.49987  0.38393  0.18804  Biso   1.000  C
  H325     1.0000 0.53617  0.39073  0.17813  Biso   1.000  H
  C390     1.0000 0.50187  0.37943  0.21263  Biso   1.000  C
  C391     1.0000 0.49017  0.21093  0.24882  Biso   1.000  C
  H326     1.0000 0.52017  0.23663  0.26113  Biso   1.000  H
  C392     1.0000 0.39907  0.13233  0.23353  Biso   1.000  C
  C393     1.0000 0.33817  0.07423  0.23003  Biso   1.000  C
  H327     1.0000 0.30137  0.06443  0.24013  Biso   1.000  H
  C394     1.0000 0.33107  0.03053  0.21183  Biso   1.000  C
  H328     1.0000 0.28947  0.99083  0.20943  Biso   1.000  H
  C395     1.0000 0.38497  0.04483  0.19713  Biso   1.000  C
  H329     1.0000 0.38017  0.01503  0.18473  Biso   1.000  H
  C396     1.0000 0.44587  0.10293  0.20063  Biso   1.000  C
  H330     1.0000 0.48267  0.11273  0.19063  Biso   1.000  H
  C397     1.0000 0.45297  0.14663  0.21883  Biso   1.000  C
  C398     1.0000 0.40267  0.16943  0.22730  Biso   1.000  C
  C399     1.0000 0.33937  0.13533  0.21723  Biso   1.000  C
  H331     1.0000 0.30107  0.12453  0.22653  Biso   1.000  H
  C400     1.0000 0.33217  0.11703  0.19343  Biso   1.000  C
  H332     1.0000 0.29037  0.09473  0.18743  Biso   1.000  H
  C401     1.0000 0.38817  0.13293  0.17971  Biso   1.000  C
  H333     1.0000 0.38387  0.12483  0.16333  Biso   1.000  H
  C402     1.0000 0.45147  0.16713  0.18983  Biso   1.000  C
  H334     1.0000 0.48987  0.17793  0.18043  Biso   1.000  H
  C403     1.0000 0.45877  0.18533  0.21363  Biso   1.000  C
  C404     1.0000 0.20577  0.22113  0.21933  Biso   1.000  C
  H335     1.0000 0.21077  0.18323  0.22193  Biso   1.000  H
  C405     1.0000 0.18777  0.23723  0.19793  Biso   1.000  C
  H336     1.0000 0.17737  0.20673  0.18513  Biso   1.000  H
  C406     1.0000 0.18377  0.29283  0.19363  Biso   1.000  C
  H337     1.0000 0.17737  0.30143  0.17763  Biso   1.000  H
  C407     1.0000 0.18807  0.33763  0.21042  Biso   1.000  C
  H338     1.0000 0.17957  0.37323  0.20763  Biso   1.000  H
  N99      1.0000 0.21857  0.36013  0.25325  Biso   1.000  N
  H339     1.0000 0.21637  0.39683  0.25513  Biso   1.000  H
  C408     1.0000 0.23467  0.32723  0.27118  Biso   1.000  C
  H340     1.0000 0.24487  0.34093  0.28723  Biso   1.000  H
  N100     1.0000 0.23267  0.27023  0.26083  Biso   1.000  N
  C409     1.0000 0.21547  0.26793  0.23651  Biso   1.000  C
  C410     1.0000 0.20677  0.32353  0.23183  Biso   1.000  C
  Cu53     1.0000 0.75716  0.10047  0.32562  Biso   1.000  Cu
  Cu54     1.0000 0.66723  0.07469  0.27821  Biso   1.000  Cu
  Cu55     1.0000 0.82304  0.19116  0.27822  Biso   1.000  Cu
  Cu56     1.0000 0.78562  0.04230  0.27986  Biso   1.000  Cu
  Cu57     1.0000 0.60273  0.24237  0.21631  Biso   1.000  Cu
  O41      1.0000 0.70187  0.03483  0.30149  Biso   1.000  O
  H341     1.0000 0.68337  0.99463  0.30393  Biso   1.000  H
  O42      1.0000 0.82587  0.12553  0.30017  Biso   1.000  O
  H342     1.0000 0.86287  0.13583  0.30533  Biso   1.000  H
  O43      1.0000 0.75637  0.10523  0.26353  Biso   1.000  O
  H343     1.0000 0.75737  0.10023  0.24923  Biso   1.000  H
  O44      1.0000 0.68827  0.28313  0.19824  Biso   1.000  O
  H344     1.0000 0.70437  0.25993  0.19353  Biso   1.000  H
  N101     1.0000 0.68637  0.05593  0.34951  Biso   1.000  N
  N102     1.0000 0.60017  0.03123  0.37404  Biso   1.000  N
  N103     1.0000 0.82517  0.15973  0.34864  Biso   1.000  N
  N104     1.0000 0.88317  0.24433  0.37350  Biso   1.000  N
  N105     1.0000 0.63887  0.10443  0.25016  Biso   1.000  N
  N106     1.0000 0.61427  0.16803  0.22640  Biso   1.000  N
  N107     1.0000 0.81957  0.24333  0.25138  Biso   1.000  N
  N108     1.0000 0.79707  0.30753  0.22840  Biso   1.000  N
  C411     1.0000 0.64627  0.07613  0.35945  Biso   1.000  C
  H345     1.0000 0.65037  0.11843  0.35633  Biso   1.000  H
  C412     1.0000 0.66377  0.99293  0.35774  Biso   1.000  C
  C413     1.0000 0.68197  0.94543  0.35242  Biso   1.000  C
  H346     1.0000 0.72097  0.95783  0.34353  Biso   1.000  H
  C414     1.0000 0.64597  0.88143  0.36186  Biso   1.000  C
  H347     1.0000 0.66177  0.84833  0.35643  Biso   1.000  H
  C415     1.0000 0.59167  0.86493  0.37663  Biso   1.000  C
  H348     1.0000 0.56647  0.82483  0.38403  Biso   1.000  H
  C416     1.0000 0.57337  0.91233  0.38195  Biso   1.000  C
  H349     1.0000 0.53407  0.90063  0.39123  Biso   1.000  H
  C417     1.0000 0.60947  0.97633  0.37251  Biso   1.000  C
  C418     1.0000 0.84037  0.21953  0.35586  Biso   1.000  C
  H350     1.0000 0.82157  0.24363  0.34873  Biso   1.000  H
  C419     1.0000 0.85997  0.14173  0.36303  Biso   1.000  C
  C420     1.0000 0.86387  0.08423  0.36353  Biso   1.000  C
  H351     1.0000 0.84087  0.04863  0.35263  Biso   1.000  H
  C421     1.0000 0.90557  0.08273  0.38193  Biso   1.000  C
  H352     1.0000 0.91137  0.04483  0.38293  Biso   1.000  H
  C422     1.0000 0.93717  0.13213  0.39803  Biso   1.000  C
  H353     1.0000 0.96127  0.12613  0.41053  Biso   1.000  H
  C423     1.0000 0.93577  0.18963  0.39693  Biso   1.000  C
  H354     1.0000 0.96057  0.22503  0.40773  Biso   1.000  H
  C424     1.0000 0.89577  0.19503  0.37898  Biso   1.000  C
  C425     1.0000 0.62607  0.15323  0.24842  Biso   1.000  C
  H355     1.0000 0.62517  0.17733  0.26193  Biso   1.000  H
  C426     1.0000 0.63607  0.08413  0.22684  Biso   1.000  C
  C427     1.0000 0.64557  0.03233  0.21811  Biso   1.000  C
  H356     1.0000 0.65587  0.00563  0.22813  Biso   1.000  H
  C428     1.0000 0.63867  0.02293  0.19343  Biso   1.000  C
  H357     1.0000 0.64477  0.98923  0.18623  Biso   1.000  H
  C429     1.0000 0.62217  0.06453  0.17913  Biso   1.000  C
  H358     1.0000 0.61527  0.05553  0.16263  Biso   1.000  H
  C430     1.0000 0.61607  0.11593  0.18804  Biso   1.000  C
  H359     1.0000 0.60927  0.14543  0.17813  Biso   1.000  H
  C431     1.0000 0.62057  0.12243  0.21263  Biso   1.000  C
  C432     1.0000 0.78907  0.27923  0.24882  Biso   1.000  C
  H360     1.0000 0.76337  0.28353  0.26113  Biso   1.000  H
  C433     1.0000 0.86767  0.26673  0.23353  Biso   1.000  C
  C434     1.0000 0.92577  0.26393  0.23003  Biso   1.000  C
  H361     1.0000 0.93557  0.23693  0.24013  Biso   1.000  H
  C435     1.0000 0.96947  0.30053  0.21183  Biso   1.000  C
  H362     1.0000 0.00917  0.29863  0.20943  Biso   1.000  H
  C436     1.0000 0.95517  0.34013  0.19713  Biso   1.000  C
  H363     1.0000 0.98497  0.36513  0.18473  Biso   1.000  H
  C437     1.0000 0.89707  0.34293  0.20063  Biso   1.000  C
  H364     1.0000 0.88727  0.36993  0.19063  Biso   1.000  H
  C438     1.0000 0.85337  0.30633  0.21883  Biso   1.000  C
  C439     1.0000 0.83057  0.23323  0.22730  Biso   1.000  C
  C440     1.0000 0.86467  0.20403  0.21723  Biso   1.000  C
  H365     1.0000 0.87547  0.17653  0.22653  Biso   1.000  H
  C441     1.0000 0.88297  0.21513  0.19343  Biso   1.000  C
  H366     1.0000 0.90527  0.19563  0.18743  Biso   1.000  H
  C442     1.0000 0.86707  0.25523  0.17971  Biso   1.000  C
  H367     1.0000 0.87517  0.25903  0.16333  Biso   1.000  H
  C443     1.0000 0.83287  0.28433  0.18983  Biso   1.000  C
  H368     1.0000 0.82207  0.31193  0.18043  Biso   1.000  H
  C444     1.0000 0.81467  0.27343  0.21363  Biso   1.000  C
  C445     1.0000 0.77887  0.98463  0.21933  Biso   1.000  C
  H369     1.0000 0.81677  0.02753  0.22193  Biso   1.000  H
  C446     1.0000 0.76277  0.95053  0.19793  Biso   1.000  C
  H370     1.0000 0.79327  0.97063  0.18513  Biso   1.000  H
  C447     1.0000 0.70717  0.89093  0.19363  Biso   1.000  C
  H371     1.0000 0.69857  0.87593  0.17763  Biso   1.000  H
  C448     1.0000 0.66237  0.85043  0.21042  Biso   1.000  C
  H372     1.0000 0.62677  0.80633  0.20763  Biso   1.000  H
  N109     1.0000 0.63987  0.85843  0.25325  Biso   1.000  N
  H373     1.0000 0.60317  0.81953  0.25513  Biso   1.000  H
  C449     1.0000 0.67277  0.90743  0.27118  Biso   1.000  C
  H374     1.0000 0.65907  0.90393  0.28723  Biso   1.000  H
  N110     1.0000 0.72977  0.96243  0.26083  Biso   1.000  N
  C450     1.0000 0.73207  0.94753  0.23651  Biso   1.000  C
  C451     1.0000 0.67647  0.88323  0.23183  Biso   1.000  C
  Cu58     1.0000 0.89953  0.65668  0.32562  Biso   1.000  Cu
  Cu59     1.0000 0.92531  0.59253  0.27821  Biso   1.000  Cu
  Cu60     1.0000 0.80884  0.63187  0.27822  Biso   1.000  Cu
  Cu61     1.0000 0.95770  0.74331  0.27986  Biso   1.000  Cu
  Cu62     1.0000 0.75763  0.36035  0.21631  Biso   1.000  Cu
  O45      1.0000 0.96517  0.66703  0.30149  Biso   1.000  O
  H375     1.0000 0.00537  0.68873  0.30393  Biso   1.000  H
  O46      1.0000 0.87447  0.70033  0.30017  Biso   1.000  O
  H376     1.0000 0.86417  0.72703  0.30533  Biso   1.000  H
  O47      1.0000 0.89477  0.65113  0.26353  Biso   1.000  O
  H377     1.0000 0.89977  0.65713  0.24923  Biso   1.000  H
  O48      1.0000 0.71687  0.40513  0.19824  Biso   1.000  O
  H378     1.0000 0.74007  0.44443  0.19353  Biso   1.000  H
  N111     1.0000 0.94407  0.63043  0.34951  Biso   1.000  N
  N112     1.0000 0.96877  0.56893  0.37404  Biso   1.000  N
  N113     1.0000 0.84027  0.66543  0.34864  Biso   1.000  N
  N114     1.0000 0.75567  0.63883  0.37350  Biso   1.000  N
  N115     1.0000 0.89557  0.53443  0.25016  Biso   1.000  N
  N116     1.0000 0.83197  0.44623  0.22640  Biso   1.000  N
  N117     1.0000 0.75667  0.57623  0.25138  Biso   1.000  N
  N118     1.0000 0.69247  0.48953  0.22840  Biso   1.000  N
  C452     1.0000 0.92387  0.57013  0.35945  Biso   1.000  C
  H379     1.0000 0.88157  0.53193  0.35633  Biso   1.000  H
  C453     1.0000 0.00707  0.67083  0.35774  Biso   1.000  C
  C454     1.0000 0.05457  0.73653  0.35242  Biso   1.000  C
  H380     1.0000 0.04217  0.76313  0.34353  Biso   1.000  H
  C455     1.0000 0.11857  0.76453  0.36186  Biso   1.000  C
  H381     1.0000 0.15167  0.81343  0.35643  Biso   1.000  H
  C456     1.0000 0.13507  0.72673  0.37663  Biso   1.000  C
  H382     1.0000 0.17517  0.74163  0.38403  Biso   1.000  H
  C457     1.0000 0.08767  0.66103  0.38195  Biso   1.000  C
  H383     1.0000 0.09937  0.63343  0.39123  Biso   1.000  H
  C458     1.0000 0.02367  0.63313  0.37251  Biso   1.000  C
  C459     1.0000 0.78047  0.62083  0.35586  Biso   1.000  C
  H384     1.0000 0.75637  0.57793  0.34873  Biso   1.000  H
  C460     1.0000 0.85827  0.71823  0.36303  Biso   1.000  C
  C461     1.0000 0.91577  0.77963  0.36353  Biso   1.000  C
  H385     1.0000 0.95137  0.79223  0.35263  Biso   1.000  H
  C462     1.0000 0.91727  0.82283  0.38193  Biso   1.000  C
  H386     1.0000 0.95517  0.86653  0.38293  Biso   1.000  H
  C463     1.0000 0.86787  0.80503  0.39803  Biso   1.000  C
  H387     1.0000 0.87387  0.83513  0.41053  Biso   1.000  H
  C464     1.0000 0.81037  0.74613  0.39693  Biso   1.000  C
  H388     1.0000 0.77497  0.73553  0.40773  Biso   1.000  H
  C465     1.0000 0.80497  0.70073  0.37898  Biso   1.000  C
  C466     1.0000 0.84677  0.47283  0.24842  Biso   1.000  C
  H389     1.0000 0.82267  0.44783  0.26193  Biso   1.000  H
  C467     1.0000 0.91587  0.55193  0.22684  Biso   1.000  C
  C468     1.0000 0.96767  0.61323  0.21811  Biso   1.000  C
  H390     1.0000 0.99437  0.65023  0.22813  Biso   1.000  H
  C469     1.0000 0.97707  0.61573  0.19343  Biso   1.000  C
  H391     1.0000 0.01077  0.65553  0.18623  Biso   1.000  H
  C470     1.0000 0.93547  0.55763  0.17913  Biso   1.000  C
  H392     1.0000 0.94447  0.55973  0.16263  Biso   1.000  H
  C471     1.0000 0.88407  0.50013  0.18804  Biso   1.000  C
  H393     1.0000 0.85457  0.46383  0.17813  Biso   1.000  H
  C472     1.0000 0.87757  0.49813  0.21263  Biso   1.000  C
  C473     1.0000 0.72077  0.50983  0.24882  Biso   1.000  C
  H394     1.0000 0.71647  0.47983  0.26113  Biso   1.000  H
  C474     1.0000 0.73327  0.60093  0.23353  Biso   1.000  C
  C475     1.0000 0.73607  0.66183  0.23003  Biso   1.000  C
  H395     1.0000 0.76307  0.69863  0.24013  Biso   1.000  H
  C476     1.0000 0.69947  0.66893  0.21183  Biso   1.000  C
  H396     1.0000 0.70137  0.71053  0.20943  Biso   1.000  H
  C477     1.0000 0.65987  0.61503  0.19713  Biso   1.000  C
  H397     1.0000 0.63487  0.61983  0.18473  Biso   1.000  H
  C478     1.0000 0.65707  0.55413  0.20063  Biso   1.000  C
  H398     1.0000 0.63007  0.51733  0.19063  Biso   1.000  H
  C479     1.0000 0.69367  0.54703  0.21883  Biso   1.000  C
  C480     1.0000 0.76677  0.59733  0.22730  Biso   1.000  C
  C481     1.0000 0.79597  0.66063  0.21723  Biso   1.000  C
  H399     1.0000 0.82347  0.69893  0.22653  Biso   1.000  H
  C482     1.0000 0.78487  0.66783  0.19343  Biso   1.000  C
  H400     1.0000 0.80437  0.70963  0.18743  Biso   1.000  H
  C483     1.0000 0.74477  0.61183  0.17971  Biso   1.000  C
  H401     1.0000 0.74097  0.61613  0.16333  Biso   1.000  H
  C484     1.0000 0.71567  0.54853  0.18983  Biso   1.000  C
  H402     1.0000 0.68807  0.51013  0.18043  Biso   1.000  H
  C485     1.0000 0.72657  0.54123  0.21363  Biso   1.000  C
  C486     1.0000 0.01537  0.79423  0.21933  Biso   1.000  C
  H403     1.0000 0.97247  0.78923  0.22193  Biso   1.000  H
  C487     1.0000 0.04947  0.81223  0.19793  Biso   1.000  C
  H404     1.0000 0.02937  0.82263  0.18513  Biso   1.000  H
  C488     1.0000 0.10907  0.81623  0.19363  Biso   1.000  C
  H405     1.0000 0.12407  0.82263  0.17763  Biso   1.000  H
  C489     1.0000 0.14957  0.81193  0.21042  Biso   1.000  C
  H406     1.0000 0.19367  0.82043  0.20763  Biso   1.000  H
  N119     1.0000 0.14157  0.78143  0.25325  Biso   1.000  N
  H407     1.0000 0.18047  0.78363  0.25513  Biso   1.000  H
  C490     1.0000 0.09257  0.76533  0.27118  Biso   1.000  C
  H408     1.0000 0.09607  0.75513  0.28723  Biso   1.000  H
  N120     1.0000 0.03757  0.76733  0.26083  Biso   1.000  N
  C491     1.0000 0.05247  0.78453  0.23651  Biso   1.000  C
  C492     1.0000 0.11677  0.79323  0.23183  Biso   1.000  C
  Cu63     1.0000 0.66667  0.33333  0.49474  Biso   1.000  Cu
  Cu64     1.0000 0.66667  0.33333  0.17192  Biso   1.000  Cu
  Cu65     1.0000 0.65668  0.75716  0.67438  Biso   1.000  Cu
  Cu66     1.0000 0.59253  0.66723  0.72179  Biso   1.000  Cu
  Cu67     1.0000 0.63187  0.82304  0.72178  Biso   1.000  Cu
  Cu68     1.0000 0.74331  0.78562  0.72014  Biso   1.000  Cu
  Cu69     1.0000 0.36035  0.60273  0.78369  Biso   1.000  Cu
  O49      1.0000 0.66703  0.70187  0.69851  Biso   1.000  O
  H409     1.0000 0.68873  0.68337  0.69607  Biso   1.000  H
  O50      1.0000 0.70033  0.82587  0.69983  Biso   1.000  O
  H410     1.0000 0.72703  0.86287  0.69467  Biso   1.000  H
  O51      1.0000 0.65113  0.75637  0.73647  Biso   1.000  O
  H411     1.0000 0.65713  0.75737  0.75077  Biso   1.000  H
  O52      1.0000 0.40513  0.68827  0.80176  Biso   1.000  O
  H412     1.0000 0.44443  0.70437  0.80647  Biso   1.000  H
  N121     1.0000 0.63043  0.68637  0.65049  Biso   1.000  N
  N122     1.0000 0.56893  0.60017  0.62596  Biso   1.000  N
  N123     1.0000 0.66543  0.82517  0.65136  Biso   1.000  N
  N124     1.0000 0.63883  0.88317  0.62650  Biso   1.000  N
  N125     1.0000 0.53443  0.63887  0.74984  Biso   1.000  N
  N126     1.0000 0.44623  0.61427  0.77360  Biso   1.000  N
  N127     1.0000 0.57623  0.81957  0.74862  Biso   1.000  N
  N128     1.0000 0.48953  0.79707  0.77160  Biso   1.000  N
  C493     1.0000 0.57013  0.64627  0.64055  Biso   1.000  C
  H413     1.0000 0.53193  0.65037  0.64367  Biso   1.000  H
  C494     1.0000 0.67083  0.66377  0.64226  Biso   1.000  C
  C495     1.0000 0.73653  0.68197  0.64758  Biso   1.000  C
  H414     1.0000 0.76313  0.72097  0.65647  Biso   1.000  H
  C496     1.0000 0.76453  0.64597  0.63814  Biso   1.000  C
  H415     1.0000 0.81343  0.66177  0.64357  Biso   1.000  H
  C497     1.0000 0.72673  0.59167  0.62337  Biso   1.000  C
  H416     1.0000 0.74163  0.56647  0.61597  Biso   1.000  H
  C498     1.0000 0.66103  0.57337  0.61805  Biso   1.000  C
  H417     1.0000 0.63343  0.53407  0.60877  Biso   1.000  H
  C499     1.0000 0.63313  0.60947  0.62749  Biso   1.000  C
  C500     1.0000 0.62083  0.84037  0.64414  Biso   1.000  C
  H418     1.0000 0.57793  0.82157  0.65127  Biso   1.000  H
  C501     1.0000 0.71823  0.85997  0.63697  Biso   1.000  C
  C502     1.0000 0.77963  0.86387  0.63647  Biso   1.000  C
  H419     1.0000 0.79223  0.84087  0.64737  Biso   1.000  H
  C503     1.0000 0.82283  0.90557  0.61807  Biso   1.000  C
  H420     1.0000 0.86653  0.91137  0.61707  Biso   1.000  H
  C504     1.0000 0.80503  0.93717  0.60197  Biso   1.000  C
  H421     1.0000 0.83513  0.96127  0.58947  Biso   1.000  H
  C505     1.0000 0.74613  0.93577  0.60307  Biso   1.000  C
  H422     1.0000 0.73553  0.96057  0.59227  Biso   1.000  H
  C506     1.0000 0.70073  0.89577  0.62102  Biso   1.000  C
  C507     1.0000 0.47283  0.62607  0.75158  Biso   1.000  C
  H423     1.0000 0.44783  0.62517  0.73807  Biso   1.000  H
  C508     1.0000 0.55193  0.63607  0.77316  Biso   1.000  C
  C509     1.0000 0.61323  0.64557  0.78189  Biso   1.000  C
  H424     1.0000 0.65023  0.65587  0.77187  Biso   1.000  H
  C510     1.0000 0.61573  0.63867  0.80657  Biso   1.000  C
  H425     1.0000 0.65553  0.64477  0.81377  Biso   1.000  H
  C511     1.0000 0.55763  0.62217  0.82087  Biso   1.000  C
  H426     1.0000 0.55973  0.61527  0.83737  Biso   1.000  H
  C512     1.0000 0.50013  0.61607  0.81196  Biso   1.000  C
  H427     1.0000 0.46383  0.60927  0.82187  Biso   1.000  H
  C513     1.0000 0.49813  0.62057  0.78737  Biso   1.000  C
  C514     1.0000 0.50983  0.78907  0.75118  Biso   1.000  C
  H428     1.0000 0.47983  0.76337  0.73887  Biso   1.000  H
  C515     1.0000 0.60093  0.86767  0.76647  Biso   1.000  C
  C516     1.0000 0.66183  0.92577  0.76997  Biso   1.000  C
  H429     1.0000 0.69863  0.93557  0.75987  Biso   1.000  H
  C517     1.0000 0.66893  0.96947  0.78817  Biso   1.000  C
  H430     1.0000 0.71053  0.00917  0.79057  Biso   1.000  H
  C518     1.0000 0.61503  0.95517  0.80287  Biso   1.000  C
  H431     1.0000 0.61983  0.98497  0.81527  Biso   1.000  H
  C519     1.0000 0.55413  0.89707  0.79937  Biso   1.000  C
  H432     1.0000 0.51733  0.88727  0.80937  Biso   1.000  H
  C520     1.0000 0.54703  0.85337  0.78117  Biso   1.000  C
  C521     1.0000 0.59733  0.83057  0.77270  Biso   1.000  C
  C522     1.0000 0.66063  0.86467  0.78277  Biso   1.000  C
  H433     1.0000 0.69893  0.87547  0.77347  Biso   1.000  H
  C523     1.0000 0.66783  0.88297  0.80657  Biso   1.000  C
  H434     1.0000 0.70963  0.90527  0.81257  Biso   1.000  H
  C524     1.0000 0.61183  0.86707  0.82029  Biso   1.000  C
  H435     1.0000 0.61613  0.87517  0.83667  Biso   1.000  H
  C525     1.0000 0.54853  0.83287  0.81017  Biso   1.000  C
  H436     1.0000 0.51013  0.82207  0.81957  Biso   1.000  H
  C526     1.0000 0.54123  0.81467  0.78637  Biso   1.000  C
  C527     1.0000 0.79423  0.77887  0.78067  Biso   1.000  C
  H437     1.0000 0.78923  0.81677  0.77807  Biso   1.000  H
  C528     1.0000 0.81223  0.76277  0.80207  Biso   1.000  C
  H438     1.0000 0.82263  0.79327  0.81487  Biso   1.000  H
  C529     1.0000 0.81623  0.70717  0.80637  Biso   1.000  C
  H439     1.0000 0.82263  0.69857  0.82237  Biso   1.000  H
  C530     1.0000 0.81193  0.66237  0.78958  Biso   1.000  C
  H440     1.0000 0.82043  0.62677  0.79237  Biso   1.000  H
  N129     1.0000 0.78143  0.63987  0.74675  Biso   1.000  N
  H441     1.0000 0.78363  0.60317  0.74487  Biso   1.000  H
  C531     1.0000 0.76533  0.67277  0.72882  Biso   1.000  C
  H442     1.0000 0.75513  0.65907  0.71277  Biso   1.000  H
  N130     1.0000 0.76733  0.72977  0.73917  Biso   1.000  N
  C532     1.0000 0.78453  0.73207  0.76349  Biso   1.000  C
  C533     1.0000 0.79323  0.67647  0.76817  Biso   1.000  C
  Cu70     1.0000 0.24284  0.89953  0.67438  Biso   1.000  Cu
  Cu71     1.0000 0.33277  0.92531  0.72179  Biso   1.000  Cu
  Cu72     1.0000 0.17696  0.80884  0.72178  Biso   1.000  Cu
  Cu73     1.0000 0.21438  0.95770  0.72014  Biso   1.000  Cu
  Cu74     1.0000 0.39727  0.75763  0.78369  Biso   1.000  Cu
  O53      1.0000 0.29813  0.96517  0.69851  Biso   1.000  O
  H443     1.0000 0.31663  0.00537  0.69607  Biso   1.000  H
  O54      1.0000 0.17413  0.87447  0.69983  Biso   1.000  O
  H444     1.0000 0.13713  0.86417  0.69467  Biso   1.000  H
  O55      1.0000 0.24363  0.89477  0.73647  Biso   1.000  O
  H445     1.0000 0.24263  0.89977  0.75077  Biso   1.000  H
  O56      1.0000 0.31173  0.71687  0.80176  Biso   1.000  O
  H446     1.0000 0.29563  0.74007  0.80647  Biso   1.000  H
  N131     1.0000 0.31363  0.94407  0.65049  Biso   1.000  N
  N132     1.0000 0.39983  0.96877  0.62596  Biso   1.000  N
  N133     1.0000 0.17483  0.84027  0.65136  Biso   1.000  N
  N134     1.0000 0.11683  0.75567  0.62650  Biso   1.000  N
  N135     1.0000 0.36113  0.89557  0.74984  Biso   1.000  N
  N136     1.0000 0.38573  0.83197  0.77360  Biso   1.000  N
  N137     1.0000 0.18043  0.75667  0.74862  Biso   1.000  N
  N138     1.0000 0.20293  0.69247  0.77160  Biso   1.000  N
  C534     1.0000 0.35373  0.92387  0.64055  Biso   1.000  C
  H447     1.0000 0.34963  0.88157  0.64367  Biso   1.000  H
  C535     1.0000 0.33623  0.00707  0.64226  Biso   1.000  C
  C536     1.0000 0.31803  0.05457  0.64758  Biso   1.000  C
  H448     1.0000 0.27903  0.04217  0.65647  Biso   1.000  H
  C537     1.0000 0.35403  0.11857  0.63814  Biso   1.000  C
  H449     1.0000 0.33823  0.15167  0.64357  Biso   1.000  H
  C538     1.0000 0.40833  0.13507  0.62337  Biso   1.000  C
  H450     1.0000 0.43353  0.17517  0.61597  Biso   1.000  H
  C539     1.0000 0.42663  0.08767  0.61805  Biso   1.000  C
  H451     1.0000 0.46593  0.09937  0.60877  Biso   1.000  H
  C540     1.0000 0.39053  0.02367  0.62749  Biso   1.000  C
  C541     1.0000 0.15963  0.78047  0.64414  Biso   1.000  C
  H452     1.0000 0.17843  0.75637  0.65127  Biso   1.000  H
  C542     1.0000 0.14003  0.85827  0.63697  Biso   1.000  C
  C543     1.0000 0.13613  0.91577  0.63647  Biso   1.000  C
  H453     1.0000 0.15913  0.95137  0.64737  Biso   1.000  H
  C544     1.0000 0.09443  0.91727  0.61807  Biso   1.000  C
  H454     1.0000 0.08863  0.95517  0.61707  Biso   1.000  H
  C545     1.0000 0.06283  0.86787  0.60197  Biso   1.000  C
  H455     1.0000 0.03873  0.87387  0.58947  Biso   1.000  H
  C546     1.0000 0.06423  0.81037  0.60307  Biso   1.000  C
  H456     1.0000 0.03943  0.77497  0.59227  Biso   1.000  H
  C547     1.0000 0.10423  0.80497  0.62102  Biso   1.000  C
  C548     1.0000 0.37393  0.84677  0.75158  Biso   1.000  C
  H457     1.0000 0.37483  0.82267  0.73807  Biso   1.000  H
  C549     1.0000 0.36393  0.91587  0.77316  Biso   1.000  C
  C550     1.0000 0.35443  0.96767  0.78189  Biso   1.000  C
  H458     1.0000 0.34413  0.99437  0.77187  Biso   1.000  H
  C551     1.0000 0.36133  0.97707  0.80657  Biso   1.000  C
  H459     1.0000 0.35523  0.01077  0.81377  Biso   1.000  H
  C552     1.0000 0.37783  0.93547  0.82087  Biso   1.000  C
  H460     1.0000 0.38473  0.94447  0.83737  Biso   1.000  H
  C553     1.0000 0.38393  0.88407  0.81196  Biso   1.000  C
  H461     1.0000 0.39073  0.85457  0.82187  Biso   1.000  H
  C554     1.0000 0.37943  0.87757  0.78737  Biso   1.000  C
  C555     1.0000 0.21093  0.72077  0.75118  Biso   1.000  C
  H462     1.0000 0.23663  0.71647  0.73887  Biso   1.000  H
  C556     1.0000 0.13233  0.73327  0.76647  Biso   1.000  C
  C557     1.0000 0.07423  0.73607  0.76997  Biso   1.000  C
  H463     1.0000 0.06443  0.76307  0.75987  Biso   1.000  H
  C558     1.0000 0.03053  0.69947  0.78817  Biso   1.000  C
  H464     1.0000 0.99083  0.70137  0.79057  Biso   1.000  H
  C559     1.0000 0.04483  0.65987  0.80287  Biso   1.000  C
  H465     1.0000 0.01503  0.63487  0.81527  Biso   1.000  H
  C560     1.0000 0.10293  0.65707  0.79937  Biso   1.000  C
  H466     1.0000 0.11273  0.63007  0.80937  Biso   1.000  H
  C561     1.0000 0.14663  0.69367  0.78117  Biso   1.000  C
  C562     1.0000 0.16943  0.76677  0.77270  Biso   1.000  C
  C563     1.0000 0.13533  0.79597  0.78277  Biso   1.000  C
  H467     1.0000 0.12453  0.82347  0.77347  Biso   1.000  H
  C564     1.0000 0.11703  0.78487  0.80657  Biso   1.000  C
  H468     1.0000 0.09473  0.80437  0.81257  Biso   1.000  H
  C565     1.0000 0.13293  0.74477  0.82029  Biso   1.000  C
  H469     1.0000 0.12483  0.74097  0.83667  Biso   1.000  H
  C566     1.0000 0.16713  0.71567  0.81017  Biso   1.000  C
  H470     1.0000 0.17793  0.68807  0.81957  Biso   1.000  H
  C567     1.0000 0.18533  0.72657  0.78637  Biso   1.000  C
  C568     1.0000 0.22113  0.01537  0.78067  Biso   1.000  C
  H471     1.0000 0.18323  0.97247  0.77807  Biso   1.000  H
  C569     1.0000 0.23723  0.04947  0.80207  Biso   1.000  C
  H472     1.0000 0.20673  0.02937  0.81487  Biso   1.000  H
  C570     1.0000 0.29283  0.10907  0.80637  Biso   1.000  C
  H473     1.0000 0.30143  0.12407  0.82237  Biso   1.000  H
  C571     1.0000 0.33763  0.14957  0.78958  Biso   1.000  C
  H474     1.0000 0.37323  0.19367  0.79237  Biso   1.000  H
  N139     1.0000 0.36013  0.14157  0.74675  Biso   1.000  N
  H475     1.0000 0.39683  0.18047  0.74487  Biso   1.000  H
  C572     1.0000 0.32723  0.09257  0.72882  Biso   1.000  C
  H476     1.0000 0.34093  0.09607  0.71277  Biso   1.000  H
  N140     1.0000 0.27023  0.03757  0.73917  Biso   1.000  N
  C573     1.0000 0.26793  0.05247  0.76349  Biso   1.000  C
  C574     1.0000 0.32353  0.11677  0.76817  Biso   1.000  C
  Cu75     1.0000 0.10047  0.34332  0.67438  Biso   1.000  Cu
  Cu76     1.0000 0.07469  0.40747  0.72179  Biso   1.000  Cu
  Cu77     1.0000 0.19116  0.36813  0.72178  Biso   1.000  Cu
  Cu78     1.0000 0.04230  0.25669  0.72014  Biso   1.000  Cu
  Cu79     1.0000 0.24237  0.63965  0.78369  Biso   1.000  Cu
  O57      1.0000 0.03483  0.33297  0.69851  Biso   1.000  O
  H477     1.0000 0.99463  0.31127  0.69607  Biso   1.000  H
  O58      1.0000 0.12553  0.29967  0.69983  Biso   1.000  O
  H478     1.0000 0.13583  0.27297  0.69467  Biso   1.000  H
  O59      1.0000 0.10523  0.34887  0.73647  Biso   1.000  O
  H479     1.0000 0.10023  0.34287  0.75077  Biso   1.000  H
  O60      1.0000 0.28313  0.59487  0.80176  Biso   1.000  O
  H480     1.0000 0.25993  0.55557  0.80647  Biso   1.000  H
  N141     1.0000 0.05593  0.36957  0.65049  Biso   1.000  N
  N142     1.0000 0.03123  0.43107  0.62596  Biso   1.000  N
  N143     1.0000 0.15973  0.33457  0.65136  Biso   1.000  N
  N144     1.0000 0.24433  0.36117  0.62650  Biso   1.000  N
  N145     1.0000 0.10443  0.46557  0.74984  Biso   1.000  N
  N146     1.0000 0.16803  0.55377  0.77360  Biso   1.000  N
  N147     1.0000 0.24333  0.42377  0.74862  Biso   1.000  N
  N148     1.0000 0.30753  0.51047  0.77160  Biso   1.000  N
  C575     1.0000 0.07613  0.42987  0.64055  Biso   1.000  C
  H481     1.0000 0.11843  0.46807  0.64367  Biso   1.000  H
  C576     1.0000 0.99293  0.32917  0.64226  Biso   1.000  C
  C577     1.0000 0.94543  0.26347  0.64758  Biso   1.000  C
  H482     1.0000 0.95783  0.23687  0.65647  Biso   1.000  H
  C578     1.0000 0.88143  0.23547  0.63814  Biso   1.000  C
  H483     1.0000 0.84833  0.18657  0.64357  Biso   1.000  H
  C579     1.0000 0.86493  0.27327  0.62337  Biso   1.000  C
  H484     1.0000 0.82483  0.25837  0.61597  Biso   1.000  H
  C580     1.0000 0.91233  0.33897  0.61805  Biso   1.000  C
  H485     1.0000 0.90063  0.36657  0.60877  Biso   1.000  H
  C581     1.0000 0.97633  0.36687  0.62749  Biso   1.000  C
  C582     1.0000 0.21953  0.37917  0.64414  Biso   1.000  C
  H486     1.0000 0.24363  0.42207  0.65127  Biso   1.000  H
  C583     1.0000 0.14173  0.28177  0.63697  Biso   1.000  C
  C584     1.0000 0.08423  0.22037  0.63647  Biso   1.000  C
  H487     1.0000 0.04863  0.20777  0.64737  Biso   1.000  H
  C585     1.0000 0.08273  0.17717  0.61807  Biso   1.000  C
  H488     1.0000 0.04483  0.13347  0.61707  Biso   1.000  H
  C586     1.0000 0.13213  0.19497  0.60197  Biso   1.000  C
  H489     1.0000 0.12613  0.16487  0.58947  Biso   1.000  H
  C587     1.0000 0.18963  0.25387  0.60307  Biso   1.000  C
  H490     1.0000 0.22503  0.26447  0.59227  Biso   1.000  H
  C588     1.0000 0.19503  0.29927  0.62102  Biso   1.000  C
  C589     1.0000 0.15323  0.52717  0.75158  Biso   1.000  C
  H491     1.0000 0.17733  0.55217  0.73807  Biso   1.000  H
  C590     1.0000 0.08413  0.44807  0.77316  Biso   1.000  C
  C591     1.0000 0.03233  0.38677  0.78189  Biso   1.000  C
  H492     1.0000 0.00563  0.34977  0.77187  Biso   1.000  H
  C592     1.0000 0.02293  0.38427  0.80657  Biso   1.000  C
  H493     1.0000 0.98923  0.34447  0.81377  Biso   1.000  H
  C593     1.0000 0.06453  0.44237  0.82087  Biso   1.000  C
  H494     1.0000 0.05553  0.44027  0.83737  Biso   1.000  H
  C594     1.0000 0.11593  0.49987  0.81196  Biso   1.000  C
  H495     1.0000 0.14543  0.53617  0.82187  Biso   1.000  H
  C595     1.0000 0.12243  0.50187  0.78737  Biso   1.000  C
  C596     1.0000 0.27923  0.49017  0.75118  Biso   1.000  C
  H496     1.0000 0.28353  0.52017  0.73887  Biso   1.000  H
  C597     1.0000 0.26673  0.39907  0.76647  Biso   1.000  C
  C598     1.0000 0.26393  0.33817  0.76997  Biso   1.000  C
  H497     1.0000 0.23693  0.30137  0.75987  Biso   1.000  H
  C599     1.0000 0.30053  0.33107  0.78817  Biso   1.000  C
  H498     1.0000 0.29863  0.28947  0.79057  Biso   1.000  H
  C600     1.0000 0.34013  0.38497  0.80287  Biso   1.000  C
  H499     1.0000 0.36513  0.38017  0.81527  Biso   1.000  H
  C601     1.0000 0.34293  0.44587  0.79937  Biso   1.000  C
  H500     1.0000 0.36993  0.48267  0.80937  Biso   1.000  H
  C602     1.0000 0.30633  0.45297  0.78117  Biso   1.000  C
  C603     1.0000 0.23323  0.40267  0.77270  Biso   1.000  C
  C604     1.0000 0.20403  0.33937  0.78277  Biso   1.000  C
  H501     1.0000 0.17653  0.30107  0.77347  Biso   1.000  H
  C605     1.0000 0.21513  0.33217  0.80657  Biso   1.000  C
  H502     1.0000 0.19563  0.29037  0.81257  Biso   1.000  H
  C606     1.0000 0.25523  0.38817  0.82029  Biso   1.000  C
  H503     1.0000 0.25903  0.38387  0.83667  Biso   1.000  H
  C607     1.0000 0.28433  0.45147  0.81017  Biso   1.000  C
  H504     1.0000 0.31193  0.48987  0.81957  Biso   1.000  H
  C608     1.0000 0.27343  0.45877  0.78637  Biso   1.000  C
  C609     1.0000 0.98463  0.20577  0.78067  Biso   1.000  C
  H505     1.0000 0.02753  0.21077  0.77807  Biso   1.000  H
  C610     1.0000 0.95053  0.18777  0.80207  Biso   1.000  C
  H506     1.0000 0.97063  0.17737  0.81487  Biso   1.000  H
  C611     1.0000 0.89093  0.18377  0.80637  Biso   1.000  C
  H507     1.0000 0.87593  0.17737  0.82237  Biso   1.000  H
  C612     1.0000 0.85043  0.18807  0.78958  Biso   1.000  C
  H508     1.0000 0.80633  0.17957  0.79237  Biso   1.000  H
  N149     1.0000 0.85843  0.21857  0.74675  Biso   1.000  N
  H509     1.0000 0.81953  0.21637  0.74487  Biso   1.000  H
  C613     1.0000 0.90743  0.23467  0.72882  Biso   1.000  C
  H510     1.0000 0.90393  0.24487  0.71277  Biso   1.000  H
  N150     1.0000 0.96243  0.23267  0.73917  Biso   1.000  N
  C614     1.0000 0.94753  0.21547  0.76349  Biso   1.000  C
  C615     1.0000 0.88323  0.20677  0.76817  Biso   1.000  C
  Cu80     1.0000 0.00998  0.57618  0.65896  Biso   1.000  Cu
  Cu81     1.0000 0.07413  0.66611  0.61155  Biso   1.000  Cu
  Cu82     1.0000 0.03479  0.51030  0.61156  Biso   1.000  Cu
  Cu83     1.0000 0.92335  0.54772  0.61320  Biso   1.000  Cu
  Cu84     1.0000 0.30631  0.73061  0.54965  Biso   1.000  Cu
  O61      1.0000 0.99963  0.63147  0.63483  Biso   1.000  O
  H511     1.0000 0.97793  0.64997  0.63727  Biso   1.000  H
  O62      1.0000 0.96633  0.50747  0.63351  Biso   1.000  O
  H512     1.0000 0.93963  0.47047  0.63867  Biso   1.000  H
  O63      1.0000 0.01553  0.57697  0.59687  Biso   1.000  O
  H513     1.0000 0.00953  0.57597  0.58257  Biso   1.000  H
  O64      1.0000 0.26153  0.64507  0.53158  Biso   1.000  O
  H514     1.0000 0.22223  0.62897  0.52687  Biso   1.000  H
  N151     1.0000 0.03623  0.64697  0.68285  Biso   1.000  N
  N152     1.0000 0.09773  0.73317  0.70738  Biso   1.000  N
  N153     1.0000 0.00123  0.50817  0.68198  Biso   1.000  N
  N154     1.0000 0.02783  0.45017  0.70684  Biso   1.000  N
  N155     1.0000 0.13223  0.69447  0.58350  Biso   1.000  N
  N156     1.0000 0.22043  0.71907  0.55974  Biso   1.000  N
  N157     1.0000 0.09043  0.51377  0.58472  Biso   1.000  N
  N158     1.0000 0.17713  0.53627  0.56174  Biso   1.000  N
  C616     1.0000 0.09653  0.68707  0.69279  Biso   1.000  C
  H515     1.0000 0.13473  0.68297  0.68967  Biso   1.000  H
  C617     1.0000 0.99583  0.66957  0.69108  Biso   1.000  C
  C618     1.0000 0.93013  0.65137  0.68576  Biso   1.000  C
  H516     1.0000 0.90353  0.61237  0.67687  Biso   1.000  H
  C619     1.0000 0.90213  0.68737  0.69520  Biso   1.000  C
  H517     1.0000 0.85323  0.67157  0.68977  Biso   1.000  H
  C620     1.0000 0.93993  0.74167  0.70997  Biso   1.000  C
  H518     1.0000 0.92503  0.76687  0.71737  Biso   1.000  H
  C621     1.0000 0.00563  0.75997  0.71529  Biso   1.000  C
  H519     1.0000 0.03323  0.79927  0.72457  Biso   1.000  H
  C622     1.0000 0.03353  0.72387  0.70585  Biso   1.000  C
  C623     1.0000 0.04583  0.49297  0.68920  Biso   1.000  C
  H520     1.0000 0.08873  0.51177  0.68207  Biso   1.000  H
  C624     1.0000 0.94843  0.47337  0.69637  Biso   1.000  C
  C625     1.0000 0.88703  0.46947  0.69687  Biso   1.000  C
  H521     1.0000 0.87443  0.49247  0.68597  Biso   1.000  H
  C626     1.0000 0.84383  0.42777  0.71527  Biso   1.000  C
  H522     1.0000 0.80013  0.42197  0.71627  Biso   1.000  H
  C627     1.0000 0.86163  0.39617  0.73137  Biso   1.000  C
  H523     1.0000 0.83153  0.37207  0.74387  Biso   1.000  H
  C628     1.0000 0.92053  0.39757  0.73027  Biso   1.000  C
  H524     1.0000 0.93113  0.37277  0.74107  Biso   1.000  H
  C629     1.0000 0.96593  0.43757  0.71232  Biso   1.000  C
  C630     1.0000 0.19383  0.70727  0.58176  Biso   1.000  C
  H525     1.0000 0.21883  0.70817  0.59527  Biso   1.000  H
  C631     1.0000 0.11473  0.69727  0.56018  Biso   1.000  C
  C632     1.0000 0.05343  0.68777  0.55145  Biso   1.000  C
  H526     1.0000 0.01643  0.67747  0.56147  Biso   1.000  H
  C633     1.0000 0.05093  0.69467  0.52677  Biso   1.000  C
  H527     1.0000 0.01113  0.68857  0.51957  Biso   1.000  H
  C634     1.0000 0.10903  0.71117  0.51247  Biso   1.000  C
  H528     1.0000 0.10693  0.71807  0.49597  Biso   1.000  H
  C635     1.0000 0.16653  0.71727  0.52138  Biso   1.000  C
  H529     1.0000 0.20283  0.72407  0.51147  Biso   1.000  H
  C636     1.0000 0.16853  0.71277  0.54597  Biso   1.000  C
  C637     1.0000 0.15683  0.54427  0.58216  Biso   1.000  C
  H530     1.0000 0.18683  0.56997  0.59447  Biso   1.000  H
  C638     1.0000 0.06573  0.46567  0.56687  Biso   1.000  C
  C639     1.0000 0.00483  0.40757  0.56337  Biso   1.000  C
  H531     1.0000 0.96803  0.39777  0.57347  Biso   1.000  H
  C640     1.0000 0.99773  0.36387  0.54517  Biso   1.000  C
  H532     1.0000 0.95613  0.32417  0.54277  Biso   1.000  H
  C641     1.0000 0.05163  0.37817  0.53047  Biso   1.000  C
  H533     1.0000 0.04683  0.34837  0.51807  Biso   1.000  H
  C642     1.0000 0.11253  0.43627  0.53397  Biso   1.000  C
  H534     1.0000 0.14933  0.44607  0.52397  Biso   1.000  H
  C643     1.0000 0.11963  0.47997  0.55217  Biso   1.000  C
  C644     1.0000 0.06933  0.50277  0.56064  Biso   1.000  C
  C645     1.0000 0.00603  0.46867  0.55057  Biso   1.000  C
  H535     1.0000 0.96773  0.45787  0.55987  Biso   1.000  H
  C646     1.0000 0.99883  0.45037  0.52677  Biso   1.000  C
  H536     1.0000 0.95703  0.42807  0.52077  Biso   1.000  H
  C647     1.0000 0.05483  0.46627  0.51305  Biso   1.000  C
  H537     1.0000 0.05053  0.45817  0.49667  Biso   1.000  H
  C648     1.0000 0.11813  0.50047  0.52317  Biso   1.000  C
  H538     1.0000 0.15653  0.51127  0.51377  Biso   1.000  H
  C649     1.0000 0.12543  0.51867  0.54697  Biso   1.000  C
  C650     1.0000 0.87243  0.55447  0.55267  Biso   1.000  C
  H539     1.0000 0.87743  0.51657  0.55527  Biso   1.000  H
  C651     1.0000 0.85443  0.57057  0.53127  Biso   1.000  C
  H540     1.0000 0.84403  0.54007  0.51847  Biso   1.000  H
  C652     1.0000 0.85043  0.62617  0.52697  Biso   1.000  C
  H541     1.0000 0.84403  0.63477  0.51097  Biso   1.000  H
  C653     1.0000 0.85473  0.67097  0.54376  Biso   1.000  C
  H542     1.0000 0.84623  0.70657  0.54097  Biso   1.000  H
  N159     1.0000 0.88523  0.69347  0.58659  Biso   1.000  N
  H543     1.0000 0.88303  0.73017  0.58847  Biso   1.000  H
  C654     1.0000 0.90133  0.66057  0.60452  Biso   1.000  C
  H544     1.0000 0.91153  0.67427  0.62057  Biso   1.000  H
  N160     1.0000 0.89933  0.60357  0.59417  Biso   1.000  N
  C655     1.0000 0.88213  0.60127  0.56985  Biso   1.000  C
  C656     1.0000 0.87343  0.65687  0.56517  Biso   1.000  C
  Cu85     1.0000 0.42382  0.43381  0.65896  Biso   1.000  Cu
  Cu86     1.0000 0.33389  0.40803  0.61155  Biso   1.000  Cu
  Cu87     1.0000 0.48970  0.52450  0.61156  Biso   1.000  Cu
  Cu88     1.0000 0.45228  0.37564  0.61320  Biso   1.000  Cu
  Cu89     1.0000 0.26939  0.57571  0.54965  Biso   1.000  Cu
  O65      1.0000 0.36853  0.36817  0.63483  Biso   1.000  O
  H545     1.0000 0.35003  0.32797  0.63727  Biso   1.000  H
  O66      1.0000 0.49253  0.45887  0.63351  Biso   1.000  O
  H546     1.0000 0.52953  0.46917  0.63867  Biso   1.000  H
  O67      1.0000 0.42303  0.43857  0.59687  Biso   1.000  O
  H547     1.0000 0.42403  0.43357  0.58257  Biso   1.000  H
  O68      1.0000 0.35493  0.61647  0.53158  Biso   1.000  O
  H548     1.0000 0.37103  0.59327  0.52687  Biso   1.000  H
  N161     1.0000 0.35303  0.38927  0.68285  Biso   1.000  N
  N162     1.0000 0.26683  0.36457  0.70738  Biso   1.000  N
  N163     1.0000 0.49183  0.49307  0.68198  Biso   1.000  N
  N164     1.0000 0.54983  0.57767  0.70684  Biso   1.000  N
  N165     1.0000 0.30553  0.43777  0.58350  Biso   1.000  N
  N166     1.0000 0.28093  0.50137  0.55974  Biso   1.000  N
  N167     1.0000 0.48623  0.57667  0.58472  Biso   1.000  N
  N168     1.0000 0.46373  0.64087  0.56174  Biso   1.000  N
  C657     1.0000 0.31293  0.40947  0.69279  Biso   1.000  C
  H549     1.0000 0.31703  0.45177  0.68967  Biso   1.000  H
  C658     1.0000 0.33043  0.32627  0.69108  Biso   1.000  C
  C659     1.0000 0.34863  0.27877  0.68576  Biso   1.000  C
  H550     1.0000 0.38763  0.29117  0.67687  Biso   1.000  H
  C660     1.0000 0.31263  0.21477  0.69520  Biso   1.000  C
  H551     1.0000 0.32843  0.18167  0.68977  Biso   1.000  H
  C661     1.0000 0.25833  0.19827  0.70997  Biso   1.000  C
  H552     1.0000 0.23313  0.15817  0.71737  Biso   1.000  H
  C662     1.0000 0.24003  0.24567  0.71529  Biso   1.000  C
  H553     1.0000 0.20073  0.23397  0.72457  Biso   1.000  H
  C663     1.0000 0.27613  0.30967  0.70585  Biso   1.000  C
  C664     1.0000 0.50703  0.55287  0.68920  Biso   1.000  C
  H554     1.0000 0.48823  0.57697  0.68207  Biso   1.000  H
  C665     1.0000 0.52663  0.47507  0.69637  Biso   1.000  C
  C666     1.0000 0.53053  0.41757  0.69687  Biso   1.000  C
  H555     1.0000 0.50753  0.38197  0.68597  Biso   1.000  H
  C667     1.0000 0.57223  0.41607  0.71527  Biso   1.000  C
  H556     1.0000 0.57803  0.37817  0.71627  Biso   1.000  H
  C668     1.0000 0.60383  0.46547  0.73137  Biso   1.000  C
  H557     1.0000 0.62793  0.45947  0.74387  Biso   1.000  H
  C669     1.0000 0.60243  0.52297  0.73027  Biso   1.000  C
  H558     1.0000 0.62723  0.55837  0.74107  Biso   1.000  H
  C670     1.0000 0.56243  0.52837  0.71232  Biso   1.000  C
  C671     1.0000 0.29273  0.48657  0.58176  Biso   1.000  C
  H559     1.0000 0.29183  0.51067  0.59527  Biso   1.000  H
  C672     1.0000 0.30273  0.41747  0.56018  Biso   1.000  C
  C673     1.0000 0.31223  0.36567  0.55145  Biso   1.000  C
  H560     1.0000 0.32253  0.33897  0.56147  Biso   1.000  H
  C674     1.0000 0.30533  0.35627  0.52677  Biso   1.000  C
  H561     1.0000 0.31143  0.32257  0.51957  Biso   1.000  H
  C675     1.0000 0.28883  0.39787  0.51247  Biso   1.000  C
  H562     1.0000 0.28193  0.38887  0.49597  Biso   1.000  H
  C676     1.0000 0.28273  0.44927  0.52138  Biso   1.000  C
  H563     1.0000 0.27593  0.47877  0.51147  Biso   1.000  H
  C677     1.0000 0.28723  0.45577  0.54597  Biso   1.000  C
  C678     1.0000 0.45573  0.61257  0.58216  Biso   1.000  C
  H564     1.0000 0.43003  0.61687  0.59447  Biso   1.000  H
  C679     1.0000 0.53433  0.60007  0.56687  Biso   1.000  C
  C680     1.0000 0.59243  0.59727  0.56337  Biso   1.000  C
  H565     1.0000 0.60223  0.57027  0.57347  Biso   1.000  H
  C681     1.0000 0.63613  0.63387  0.54517  Biso   1.000  C
  H566     1.0000 0.67583  0.63197  0.54277  Biso   1.000  H
  C682     1.0000 0.62183  0.67347  0.53047  Biso   1.000  C
  H567     1.0000 0.65163  0.69847  0.51807  Biso   1.000  H
  C683     1.0000 0.56373  0.67627  0.53397  Biso   1.000  C
  H568     1.0000 0.55393  0.70327  0.52397  Biso   1.000  H
  C684     1.0000 0.52003  0.63967  0.55217  Biso   1.000  C
  C685     1.0000 0.49723  0.56657  0.56064  Biso   1.000  C
  C686     1.0000 0.53133  0.53737  0.55057  Biso   1.000  C
  H569     1.0000 0.54213  0.50987  0.55987  Biso   1.000  H
  C687     1.0000 0.54963  0.54847  0.52677  Biso   1.000  C
  H570     1.0000 0.57193  0.52897  0.52077  Biso   1.000  H
  C688     1.0000 0.53373  0.58857  0.51305  Biso   1.000  C
  H571     1.0000 0.54183  0.59237  0.49667  Biso   1.000  H
  C689     1.0000 0.49953  0.61767  0.52317  Biso   1.000  C
  H572     1.0000 0.48873  0.64527  0.51377  Biso   1.000  H
  C690     1.0000 0.48133  0.60677  0.54697  Biso   1.000  C
  C691     1.0000 0.44553  0.31797  0.55267  Biso   1.000  C
  H573     1.0000 0.48343  0.36087  0.55527  Biso   1.000  H
  C692     1.0000 0.42943  0.28387  0.53127  Biso   1.000  C
  H574     1.0000 0.45993  0.30397  0.51847  Biso   1.000  H
  C693     1.0000 0.37383  0.22427  0.52697  Biso   1.000  C
  H575     1.0000 0.36523  0.20927  0.51097  Biso   1.000  H
  C694     1.0000 0.32903  0.18377  0.54376  Biso   1.000  C
  H576     1.0000 0.29343  0.13967  0.54097  Biso   1.000  H
  N169     1.0000 0.30653  0.19177  0.58659  Biso   1.000  N
  H577     1.0000 0.26983  0.15287  0.58847  Biso   1.000  H
  C695     1.0000 0.33943  0.24077  0.60452  Biso   1.000  C
  H578     1.0000 0.32573  0.23727  0.62057  Biso   1.000  H
  N170     1.0000 0.39643  0.29577  0.59417  Biso   1.000  N
  C696     1.0000 0.39873  0.28087  0.56985  Biso   1.000  C
  C697     1.0000 0.34313  0.21657  0.56517  Biso   1.000  C
  Cu90     1.0000 0.56619  0.99002  0.65896  Biso   1.000  Cu
  Cu91     1.0000 0.59197  0.92587  0.61155  Biso   1.000  Cu
  Cu92     1.0000 0.47550  0.96521  0.61156  Biso   1.000  Cu
  Cu93     1.0000 0.62436  0.07665  0.61320  Biso   1.000  Cu
  Cu94     1.0000 0.42429  0.69369  0.54965  Biso   1.000  Cu
  O69      1.0000 0.63183  0.00037  0.63483  Biso   1.000  O
  H579     1.0000 0.67203  0.02207  0.63727  Biso   1.000  H
  O70      1.0000 0.54113  0.03367  0.63351  Biso   1.000  O
  H580     1.0000 0.53083  0.06037  0.63867  Biso   1.000  H
  O71      1.0000 0.56143  0.98447  0.59687  Biso   1.000  O
  H581     1.0000 0.56643  0.99047  0.58257  Biso   1.000  H
  O72      1.0000 0.38353  0.73847  0.53158  Biso   1.000  O
  H582     1.0000 0.40673  0.77777  0.52687  Biso   1.000  H
  N171     1.0000 0.61073  0.96377  0.68285  Biso   1.000  N
  N172     1.0000 0.63543  0.90227  0.70738  Biso   1.000  N
  N173     1.0000 0.50693  0.99877  0.68198  Biso   1.000  N
  N174     1.0000 0.42233  0.97217  0.70684  Biso   1.000  N
  N175     1.0000 0.56223  0.86777  0.58350  Biso   1.000  N
  N176     1.0000 0.49863  0.77957  0.55974  Biso   1.000  N
  N177     1.0000 0.42333  0.90957  0.58472  Biso   1.000  N
  N178     1.0000 0.35913  0.82287  0.56174  Biso   1.000  N
  C698     1.0000 0.59053  0.90347  0.69279  Biso   1.000  C
  H583     1.0000 0.54823  0.86527  0.68967  Biso   1.000  H
  C699     1.0000 0.67373  0.00417  0.69108  Biso   1.000  C
  C700     1.0000 0.72123  0.06987  0.68576  Biso   1.000  C
  H584     1.0000 0.70883  0.09647  0.67687  Biso   1.000  H
  C701     1.0000 0.78523  0.09787  0.69520  Biso   1.000  C
  H585     1.0000 0.81833  0.14677  0.68977  Biso   1.000  H
  C702     1.0000 0.80173  0.06007  0.70997  Biso   1.000  C
  H586     1.0000 0.84183  0.07497  0.71737  Biso   1.000  H
  C703     1.0000 0.75433  0.99437  0.71529  Biso   1.000  C
  H587     1.0000 0.76603  0.96677  0.72457  Biso   1.000  H
  C704     1.0000 0.69033  0.96647  0.70585  Biso   1.000  C
  C705     1.0000 0.44713  0.95417  0.68920  Biso   1.000  C
  H588     1.0000 0.42303  0.91127  0.68207  Biso   1.000  H
  C706     1.0000 0.52493  0.05157  0.69637  Biso   1.000  C
  C707     1.0000 0.58243  0.11297  0.69687  Biso   1.000  C
  H589     1.0000 0.61803  0.12557  0.68597  Biso   1.000  H
  C708     1.0000 0.58393  0.15617  0.71527  Biso   1.000  C
  H590     1.0000 0.62183  0.19987  0.71627  Biso   1.000  H
  C709     1.0000 0.53453  0.13837  0.73137  Biso   1.000  C
  H591     1.0000 0.54053  0.16847  0.74387  Biso   1.000  H
  C710     1.0000 0.47703  0.07947  0.73027  Biso   1.000  C
  H592     1.0000 0.44163  0.06887  0.74107  Biso   1.000  H
  C711     1.0000 0.47163  0.03407  0.71232  Biso   1.000  C
  C712     1.0000 0.51343  0.80617  0.58176  Biso   1.000  C
  H593     1.0000 0.48933  0.78117  0.59527  Biso   1.000  H
  C713     1.0000 0.58253  0.88527  0.56018  Biso   1.000  C
  C714     1.0000 0.63433  0.94657  0.55145  Biso   1.000  C
  H594     1.0000 0.66103  0.98357  0.56147  Biso   1.000  H
  C715     1.0000 0.64373  0.94907  0.52677  Biso   1.000  C
  H595     1.0000 0.67743  0.98887  0.51957  Biso   1.000  H
  C716     1.0000 0.60213  0.89097  0.51247  Biso   1.000  C
  H596     1.0000 0.61113  0.89307  0.49597  Biso   1.000  H
  C717     1.0000 0.55073  0.83347  0.52138  Biso   1.000  C
  H597     1.0000 0.52123  0.79717  0.51147  Biso   1.000  H
  C718     1.0000 0.54423  0.83147  0.54597  Biso   1.000  C
  C719     1.0000 0.38743  0.84317  0.58216  Biso   1.000  C
  H598     1.0000 0.38313  0.81317  0.59447  Biso   1.000  H
  C720     1.0000 0.39993  0.93427  0.56687  Biso   1.000  C
  C721     1.0000 0.40273  0.99517  0.56337  Biso   1.000  C
  H599     1.0000 0.42973  0.03197  0.57347  Biso   1.000  H
  C722     1.0000 0.36613  0.00227  0.54517  Biso   1.000  C
  H600     1.0000 0.36803  0.04387  0.54277  Biso   1.000  H
  C723     1.0000 0.32653  0.94837  0.53047  Biso   1.000  C
  H601     1.0000 0.30153  0.95317  0.51807  Biso   1.000  H
  C724     1.0000 0.32373  0.88747  0.53397  Biso   1.000  C
  H602     1.0000 0.29673  0.85067  0.52397  Biso   1.000  H
  C725     1.0000 0.36033  0.88037  0.55217  Biso   1.000  C
  C726     1.0000 0.43343  0.93067  0.56064  Biso   1.000  C
  C727     1.0000 0.46263  0.99397  0.55057  Biso   1.000  C
  H603     1.0000 0.49013  0.03227  0.55987  Biso   1.000  H
  C728     1.0000 0.45153  0.00117  0.52677  Biso   1.000  C
  H604     1.0000 0.47103  0.04297  0.52077  Biso   1.000  H
  C729     1.0000 0.41143  0.94517  0.51305  Biso   1.000  C
  H605     1.0000 0.40763  0.94947  0.49667  Biso   1.000  H
  C730     1.0000 0.38233  0.88187  0.52317  Biso   1.000  C
  H606     1.0000 0.35473  0.84347  0.51377  Biso   1.000  H
  C731     1.0000 0.39323  0.87457  0.54697  Biso   1.000  C
  C732     1.0000 0.68203  0.12757  0.55267  Biso   1.000  C
  H607     1.0000 0.63913  0.12257  0.55527  Biso   1.000  H
  C733     1.0000 0.71613  0.14557  0.53127  Biso   1.000  C
  H608     1.0000 0.69603  0.15597  0.51847  Biso   1.000  H
  C734     1.0000 0.77573  0.14957  0.52697  Biso   1.000  C
  H609     1.0000 0.79073  0.15597  0.51097  Biso   1.000  H
  C735     1.0000 0.81623  0.14527  0.54376  Biso   1.000  C
  H610     1.0000 0.86033  0.15377  0.54097  Biso   1.000  H
  N179     1.0000 0.80823  0.11477  0.58659  Biso   1.000  N
  H611     1.0000 0.84713  0.11697  0.58847  Biso   1.000  H
  C736     1.0000 0.75923  0.09867  0.60452  Biso   1.000  C
  H612     1.0000 0.76273  0.08847  0.62057  Biso   1.000  H
  N180     1.0000 0.70423  0.10067  0.59417  Biso   1.000  N
  C737     1.0000 0.71913  0.11787  0.56985  Biso   1.000  C
  C738     1.0000 0.78343  0.12657  0.56517  Biso   1.000  C
  Cu95     1.0000 0.33333  0.66667  0.82808  Biso   1.000  Cu
  Cu96     1.0000 0.33333  0.66667  0.50526  Biso   1.000  Cu
