data_image0
_cell_length_a       31.093
_cell_length_b       34.507
_cell_length_c       24.271
_cell_angle_alpha    90
_cell_angle_beta     128.646
_cell_angle_gamma    90

_symmetry_space_group_name_H-M    "P 1"
_symmetry_int_tables_number       1

loop_
  _symmetry_equiv_pos_as_xyz
  'x, y, z'

loop_
  _atom_site_label
  _atom_site_occupancy
  _atom_site_fract_x
  _atom_site_fract_y
  _atom_site_fract_z
  _atom_site_thermal_displace_type
  _atom_site_B_iso_or_equiv
  _atom_site_type_symbol
  Cd1      1.0000 0.77121  0.43804  0.42380  Biso   1.000  Cd
  Cd2      1.0000 0.57574  0.73953  0.04880  Biso   1.000  Cd
  C1       1.0000 0.53690  0.44480  0.37700  Biso   1.000  C
  H1       1.0000 0.53910  0.44310  0.41950  Biso   1.000  H
  H2       1.0000 0.51880  0.46940  0.35170  Biso   1.000  H
  C2       1.0000 0.59340  0.43910  0.39420  Biso   1.000  C
  C3       1.0000 0.63690  0.41610  0.44690  Biso   1.000  C
  H3       1.0000 0.63280  0.40040  0.47550  Biso   1.000  H
  C4       1.0000 0.68650  0.41620  0.45790  Biso   1.000  C
  H4       1.0000 0.71620  0.40050  0.49390  Biso   1.000  H
  N1       1.0000 0.69250  0.43920  0.41610  Biso   1.000  N
  C5       1.0000 0.64900  0.46210  0.36330  Biso   1.000  C
  C6       1.0000 0.59950  0.46210  0.35240  Biso   1.000  C
  H5       1.0000 0.56970  0.47770  0.31630  Biso   1.000  H
  C7       1.0000 0.65450  0.48410  0.31700  Biso   1.000  C
  N2       1.0000 0.70680  0.47970  0.33070  Biso   1.000  N
  C8       1.0000 0.71350  0.49860  0.28300  Biso   1.000  C
  H6       1.0000 0.74620  0.49440  0.28880  Biso   1.000  H
  C9       1.0000 0.67380  0.52240  0.23100  Biso   1.000  C
  H7       1.0000 0.68060  0.53540  0.20250  Biso   1.000  H
  C10      1.0000 0.62800  0.52780  0.21800  Biso   1.000  C
  C11      1.0000 0.61740  0.50990  0.26600  Biso   1.000  C
  H8       1.0000 0.58530  0.51650  0.26060  Biso   1.000  H
  C12      1.0000 0.58460  0.55550  0.16700  Biso   1.000  C
  H9       1.0000 0.55000  0.54190  0.12980  Biso   1.000  H
  H10      1.0000 0.57710  0.57440  0.19100  Biso   1.000  H
  O1       1.0000 0.60860  0.57350  0.13990  Biso   1.000  O
  C13      1.0000 0.57280  0.59710  0.08550  Biso   1.000  C
  C14      1.0000 0.59950  0.61560  0.06360  Biso   1.000  C
  H11      1.0000 0.63700  0.60980  0.08580  Biso   1.000  H
  C15      1.0000 0.57150  0.64250  0.00920  Biso   1.000  C
  H12      1.0000 0.58970  0.65520  0.99420  Biso   1.000  H
  C16      1.0000 0.51670  0.65100  0.97670  Biso   1.000  C
  C17      1.0000 0.49000  0.63250  0.99860  Biso   1.000  C
  H13      1.0000 0.45250  0.63830  0.97640  Biso   1.000  H
  C18      1.0000 0.51800  0.60560  0.05300  Biso   1.000  C
  H14      1.0000 0.49980  0.59290  0.06800  Biso   1.000  H
  C19      1.0000 0.47700  0.67650  0.90400  Biso   1.000  C
  H15      1.0000 0.48220  0.66890  0.86920  Biso   1.000  H
  H16      1.0000 0.43790  0.67410  0.88290  Biso   1.000  H
  N3       1.0000 0.49930  0.71790  0.93300  Biso   1.000  N
  C20      1.0000 0.47800  0.73950  0.87800  Biso   1.000  C
  H17      1.0000 0.45230  0.73000  0.83070  Biso   1.000  H
  C21      1.0000 0.49880  0.78300  0.89500  Biso   1.000  C
  N4       1.0000 0.54050  0.79120  0.96600  Biso   1.000  N
  C22      1.0000 0.56150  0.82850  0.98680  Biso   1.000  C
  C23      1.0000 0.54090  0.85770  0.93700  Biso   1.000  C
  H18      1.0000 0.55520  0.88330  0.95080  Biso   1.000  H
  C24      1.0000 0.49920  0.84960  0.86600  Biso   1.000  C
  H19      1.0000 0.48510  0.86950  0.83150  Biso   1.000  H
  C25      1.0000 0.47820  0.81220  0.84510  Biso   1.000  C
  H20      1.0000 0.44980  0.80660  0.79660  Biso   1.000  H
  C26      1.0000 0.60050  0.83420  0.06100  Biso   1.000  C
  H21      1.0000 0.61320  0.85980  0.07830  Biso   1.000  H
  N5       1.0000 0.61950  0.80590  0.10600  Biso   1.000  N
  C27      1.0000 0.66000  0.80860  0.18300  Biso   1.000  C
  H22      1.0000 0.67460  0.83540  0.19560  Biso   1.000  H
  H23      1.0000 0.69120  0.79110  0.19910  Biso   1.000  H
  C28      1.0000 0.63680  0.79780  0.22340  Biso   1.000  C
  C29      1.0000 0.58830  0.81460  0.20370  Biso   1.000  C
  H24      1.0000 0.57010  0.83370  0.16760  Biso   1.000  H
  C30      1.0000 0.56660  0.80350  0.23700  Biso   1.000  C
  H25      1.0000 0.53350  0.81500  0.22340  Biso   1.000  H
  C31      1.0000 0.59330  0.77560  0.28980  Biso   1.000  C
  C32      1.0000 0.64170  0.75880  0.30950  Biso   1.000  C
  H26      1.0000 0.65990  0.73970  0.34560  Biso   1.000  H
  C33      1.0000 0.66340  0.76990  0.27630  Biso   1.000  C
  H27      1.0000 0.69650  0.75840  0.28980  Biso   1.000  H
  O2       1.0000 0.57050  0.76900  0.32100  Biso   1.000  O
  C34      1.0000 0.41000  0.73840  0.12800  Biso   1.000  C
  H28      1.0000 0.37210  0.74470  0.08430  Biso   1.000  H
  H29      1.0000 0.40790  0.71370  0.14700  Biso   1.000  H
  C35      1.0000 0.44870  0.73450  0.11040  Biso   1.000  C
  C36      1.0000 0.43170  0.75780  0.05330  Biso   1.000  C
  H30      1.0000 0.39830  0.77200  0.02930  Biso   1.000  H
  C37      1.0000 0.46350  0.76030  0.03120  Biso   1.000  C
  H31      1.0000 0.45180  0.77620  0.99220  Biso   1.000  H
  N6       1.0000 0.51230  0.73940  0.06630  Biso   1.000  N
  C38      1.0000 0.52930  0.71610  0.12340  Biso   1.000  C
  C39      1.0000 0.49750  0.71360  0.14540  Biso   1.000  C
  H32      1.0000 0.50920  0.69770  0.18450  Biso   1.000  H
  C40      1.0000 0.57460  0.69150  0.16250  Biso   1.000  C
  N7       1.0000 0.60620  0.69860  0.14120  Biso   1.000  N
  C41      1.0000 0.65800  0.68190  0.17740  Biso   1.000  C
  H33      1.0000 0.67960  0.68680  0.16280  Biso   1.000  H
  C42      1.0000 0.67820  0.65800  0.23510  Biso   1.000  C
  H34      1.0000 0.71370  0.64660  0.25990  Biso   1.000  H
  C43      1.0000 0.64660  0.65090  0.25640  Biso   1.000  C
  C44      1.0000 0.59480  0.66760  0.22020  Biso   1.000  C
  H35      1.0000 0.57320  0.66270  0.23480  Biso   1.000  H
  C45      1.0000 0.66320  0.62300  0.31800  Biso   1.000  C
  H36      1.0000 0.63580  0.60190  0.30010  Biso   1.000  H
  H37      1.0000 0.66670  0.63720  0.35560  Biso   1.000  H
  O3       1.0000 0.72080  0.60630  0.34420  Biso   1.000  O
  C46      1.0000 0.73960  0.58070  0.39480  Biso   1.000  C
  C47      1.0000 0.79000  0.56650  0.41710  Biso   1.000  C
  H38      1.0000 0.80430  0.57440  0.39380  Biso   1.000  H
  C48      1.0000 0.81960  0.54070  0.47300  Biso   1.000  C
  H39      1.0000 0.85400  0.53100  0.48850  Biso   1.000  H
  C49      1.0000 0.79870  0.52910  0.50720  Biso   1.000  C
  C50      1.0000 0.74820  0.54320  0.48500  Biso   1.000  C
  H40      1.0000 0.73400  0.53530  0.50820  Biso   1.000  H
  C51      1.0000 0.71870  0.56900  0.42900  Biso   1.000  C
  H41      1.0000 0.68420  0.57870  0.41360  Biso   1.000  H
  C52      1.0000 0.83900  0.50400  0.58200  Biso   1.000  C
  H42      1.0000 0.87800  0.51050  0.60940  Biso   1.000  H
  H43      1.0000 0.82710  0.50600  0.61130  Biso   1.000  H
  N8       1.0000 0.82550  0.46060  0.54600  Biso   1.000  N
  C53      1.0000 0.85000  0.43440  0.59300  Biso   1.000  C
  H44      1.0000 0.87330  0.44120  0.64110  Biso   1.000  H
  C54      1.0000 0.84300  0.39210  0.57100  Biso   1.000  C
  N9       1.0000 0.81250  0.38370  0.50000  Biso   1.000  N
  C55      1.0000 0.80560  0.34550  0.47740  Biso   1.000  C
  C56      1.0000 0.82910  0.31560  0.52700  Biso   1.000  C
  H45      1.0000 0.82440  0.28950  0.51160  Biso   1.000  H
  C57      1.0000 0.85960  0.32400  0.59800  Biso   1.000  C
  H46      1.0000 0.87570  0.30360  0.63170  Biso   1.000  H
  C58      1.0000 0.86660  0.36230  0.62020  Biso   1.000  C
  H47      1.0000 0.88740  0.36800  0.66900  Biso   1.000  H
  C59      1.0000 0.76930  0.34890  0.39800  Biso   1.000  C
  H48      1.0000 0.76070  0.32530  0.37250  Biso   1.000  H
  N10      1.0000 0.74980  0.37830  0.36200  Biso   1.000  N
  C60      1.0000 0.71300  0.36720  0.28700  Biso   1.000  C
  H49      1.0000 0.71390  0.33880  0.28170  Biso   1.000  H
  H50      1.0000 0.72500  0.38000  0.26170  Biso   1.000  H
  C61      1.0000 0.65150  0.38100  0.25350  Biso   1.000  C
  C62      1.0000 0.62810  0.36420  0.28120  Biso   1.000  C
  H51      1.0000 0.64840  0.34590  0.31840  Biso   1.000  H
  C63      1.0000 0.57490  0.37420  0.25440  Biso   1.000  C
  H52      1.0000 0.55890  0.36280  0.27330  Biso   1.000  H
  C64      1.0000 0.54520  0.40100  0.19990  Biso   1.000  C
  C65      1.0000 0.56860  0.41780  0.17220  Biso   1.000  C
  H53      1.0000 0.54830  0.43620  0.13490  Biso   1.000  H
  C66      1.0000 0.62180  0.40790  0.19900  Biso   1.000  C
  H54      1.0000 0.63780  0.41930  0.18010  Biso   1.000  H
  O4       1.0000 0.48950  0.41020  0.16920  Biso   1.000  O
  Cd3      1.0000 0.22879  0.43804  0.07620  Biso   1.000  Cd
  Cd4      1.0000 0.42426  0.73953  0.45120  Biso   1.000  Cd
  C67      1.0000 0.46310  0.44480  0.12300  Biso   1.000  C
  H55      1.0000 0.46090  0.44310  0.08050  Biso   1.000  H
  H56      1.0000 0.48120  0.46940  0.14830  Biso   1.000  H
  C68      1.0000 0.40660  0.43910  0.10580  Biso   1.000  C
  C69      1.0000 0.36310  0.41610  0.05310  Biso   1.000  C
  H57      1.0000 0.36720  0.40040  0.02450  Biso   1.000  H
  C70      1.0000 0.31350  0.41620  0.04210  Biso   1.000  C
  H58      1.0000 0.28380  0.40050  0.00610  Biso   1.000  H
  N11      1.0000 0.30750  0.43920  0.08390  Biso   1.000  N
  C71      1.0000 0.35100  0.46210  0.13670  Biso   1.000  C
  C72      1.0000 0.40050  0.46210  0.14760  Biso   1.000  C
  H59      1.0000 0.43030  0.47770  0.18370  Biso   1.000  H
  C73      1.0000 0.34550  0.48410  0.18300  Biso   1.000  C
  N12      1.0000 0.29320  0.47970  0.16930  Biso   1.000  N
  C74      1.0000 0.28650  0.49860  0.21700  Biso   1.000  C
  H60      1.0000 0.25380  0.49440  0.21120  Biso   1.000  H
  C75      1.0000 0.32620  0.52240  0.26900  Biso   1.000  C
  H61      1.0000 0.31940  0.53540  0.29750  Biso   1.000  H
  C76      1.0000 0.37200  0.52780  0.28200  Biso   1.000  C
  C77      1.0000 0.38260  0.50990  0.23400  Biso   1.000  C
  H62      1.0000 0.41470  0.51650  0.23940  Biso   1.000  H
  C78      1.0000 0.41540  0.55550  0.33300  Biso   1.000  C
  H63      1.0000 0.45000  0.54190  0.37020  Biso   1.000  H
  H64      1.0000 0.42290  0.57440  0.30900  Biso   1.000  H
  O5       1.0000 0.39140  0.57350  0.36010  Biso   1.000  O
  C79      1.0000 0.42720  0.59710  0.41450  Biso   1.000  C
  C80      1.0000 0.40050  0.61560  0.43640  Biso   1.000  C
  H65      1.0000 0.36300  0.60980  0.41420  Biso   1.000  H
  C81      1.0000 0.42850  0.64250  0.49080  Biso   1.000  C
  H66      1.0000 0.41030  0.65520  0.50580  Biso   1.000  H
  C82      1.0000 0.48330  0.65100  0.52330  Biso   1.000  C
  C83      1.0000 0.51000  0.63250  0.50140  Biso   1.000  C
  H67      1.0000 0.54750  0.63830  0.52360  Biso   1.000  H
  C84      1.0000 0.48200  0.60560  0.44700  Biso   1.000  C
  H68      1.0000 0.50020  0.59290  0.43200  Biso   1.000  H
  C85      1.0000 0.52300  0.67650  0.59600  Biso   1.000  C
  H69      1.0000 0.51780  0.66890  0.63080  Biso   1.000  H
  H70      1.0000 0.56210  0.67410  0.61710  Biso   1.000  H
  N13      1.0000 0.50070  0.71790  0.56700  Biso   1.000  N
  C86      1.0000 0.52200  0.73950  0.62200  Biso   1.000  C
  H71      1.0000 0.54770  0.73000  0.66930  Biso   1.000  H
  C87      1.0000 0.50120  0.78300  0.60500  Biso   1.000  C
  N14      1.0000 0.45950  0.79120  0.53400  Biso   1.000  N
  C88      1.0000 0.43850  0.82850  0.51320  Biso   1.000  C
  C89      1.0000 0.45910  0.85770  0.56300  Biso   1.000  C
  H72      1.0000 0.44480  0.88330  0.54920  Biso   1.000  H
  C90      1.0000 0.50080  0.84960  0.63400  Biso   1.000  C
  H73      1.0000 0.51490  0.86950  0.66850  Biso   1.000  H
  C91      1.0000 0.52180  0.81220  0.65490  Biso   1.000  C
  H74      1.0000 0.55020  0.80660  0.70340  Biso   1.000  H
  C92      1.0000 0.39950  0.83420  0.43900  Biso   1.000  C
  H75      1.0000 0.38680  0.85980  0.42170  Biso   1.000  H
  N15      1.0000 0.38050  0.80590  0.39400  Biso   1.000  N
  C93      1.0000 0.34000  0.80860  0.31700  Biso   1.000  C
  H76      1.0000 0.32540  0.83540  0.30440  Biso   1.000  H
  H77      1.0000 0.30880  0.79110  0.30090  Biso   1.000  H
  C94      1.0000 0.36320  0.79780  0.27660  Biso   1.000  C
  C95      1.0000 0.41170  0.81460  0.29630  Biso   1.000  C
  H78      1.0000 0.42990  0.83370  0.33240  Biso   1.000  H
  C96      1.0000 0.43340  0.80350  0.26300  Biso   1.000  C
  H79      1.0000 0.46650  0.81500  0.27660  Biso   1.000  H
  C97      1.0000 0.40670  0.77560  0.21020  Biso   1.000  C
  C98      1.0000 0.35830  0.75880  0.19050  Biso   1.000  C
  H80      1.0000 0.34010  0.73970  0.15440  Biso   1.000  H
  C99      1.0000 0.33660  0.76990  0.22370  Biso   1.000  C
  H81      1.0000 0.30350  0.75840  0.21020  Biso   1.000  H
  O6       1.0000 0.42950  0.76900  0.17900  Biso   1.000  O
  C100     1.0000 0.59000  0.73840  0.37200  Biso   1.000  C
  H82      1.0000 0.62790  0.74470  0.41570  Biso   1.000  H
  H83      1.0000 0.59210  0.71370  0.35300  Biso   1.000  H
  C101     1.0000 0.55130  0.73450  0.38960  Biso   1.000  C
  C102     1.0000 0.56830  0.75780  0.44670  Biso   1.000  C
  H84      1.0000 0.60170  0.77200  0.47070  Biso   1.000  H
  C103     1.0000 0.53650  0.76030  0.46880  Biso   1.000  C
  H85      1.0000 0.54820  0.77620  0.50780  Biso   1.000  H
  N16      1.0000 0.48770  0.73940  0.43370  Biso   1.000  N
  C104     1.0000 0.47070  0.71610  0.37660  Biso   1.000  C
  C105     1.0000 0.50250  0.71360  0.35460  Biso   1.000  C
  H86      1.0000 0.49080  0.69770  0.31550  Biso   1.000  H
  C106     1.0000 0.42540  0.69150  0.33750  Biso   1.000  C
  N17      1.0000 0.39380  0.69860  0.35880  Biso   1.000  N
  C107     1.0000 0.34200  0.68190  0.32260  Biso   1.000  C
  H87      1.0000 0.32040  0.68680  0.33720  Biso   1.000  H
  C108     1.0000 0.32180  0.65800  0.26490  Biso   1.000  C
  H88      1.0000 0.28630  0.64660  0.24010  Biso   1.000  H
  C109     1.0000 0.35340  0.65090  0.24360  Biso   1.000  C
  C110     1.0000 0.40520  0.66760  0.27980  Biso   1.000  C
  H89      1.0000 0.42680  0.66270  0.26520  Biso   1.000  H
  C111     1.0000 0.33680  0.62300  0.18200  Biso   1.000  C
  H90      1.0000 0.36420  0.60190  0.19990  Biso   1.000  H
  H91      1.0000 0.33330  0.63720  0.14440  Biso   1.000  H
  O7       1.0000 0.27920  0.60630  0.15580  Biso   1.000  O
  C112     1.0000 0.26040  0.58070  0.10520  Biso   1.000  C
  C113     1.0000 0.21000  0.56650  0.08290  Biso   1.000  C
  H92      1.0000 0.19570  0.57440  0.10620  Biso   1.000  H
  C114     1.0000 0.18040  0.54070  0.02700  Biso   1.000  C
  H93      1.0000 0.14600  0.53100  0.01150  Biso   1.000  H
  C115     1.0000 0.20130  0.52910  0.99280  Biso   1.000  C
  C116     1.0000 0.25180  0.54320  0.01500  Biso   1.000  C
  H94      1.0000 0.26600  0.53530  0.99180  Biso   1.000  H
  C117     1.0000 0.28130  0.56900  0.07100  Biso   1.000  C
  H95      1.0000 0.31580  0.57870  0.08640  Biso   1.000  H
  C118     1.0000 0.16100  0.50400  0.91800  Biso   1.000  C
  H96      1.0000 0.12200  0.51050  0.89060  Biso   1.000  H
  H97      1.0000 0.17290  0.50600  0.88870  Biso   1.000  H
  N18      1.0000 0.17450  0.46060  0.95400  Biso   1.000  N
  C119     1.0000 0.15000  0.43440  0.90700  Biso   1.000  C
  H98      1.0000 0.12670  0.44120  0.85890  Biso   1.000  H
  C120     1.0000 0.15700  0.39210  0.92900  Biso   1.000  C
  N19      1.0000 0.18750  0.38370  0.00000  Biso   1.000  N
  C121     1.0000 0.19440  0.34550  0.02260  Biso   1.000  C
  C122     1.0000 0.17090  0.31560  0.97300  Biso   1.000  C
  H99      1.0000 0.17560  0.28950  0.98840  Biso   1.000  H
  C123     1.0000 0.14040  0.32400  0.90200  Biso   1.000  C
  H100     1.0000 0.12430  0.30360  0.86830  Biso   1.000  H
  C124     1.0000 0.13340  0.36230  0.87980  Biso   1.000  C
  H101     1.0000 0.11260  0.36800  0.83100  Biso   1.000  H
  C125     1.0000 0.23070  0.34890  0.10200  Biso   1.000  C
  H102     1.0000 0.23930  0.32530  0.12750  Biso   1.000  H
  N20      1.0000 0.25020  0.37830  0.13800  Biso   1.000  N
  C126     1.0000 0.28700  0.36720  0.21300  Biso   1.000  C
  H103     1.0000 0.28610  0.33880  0.21830  Biso   1.000  H
  H104     1.0000 0.27500  0.38000  0.23830  Biso   1.000  H
  C127     1.0000 0.34850  0.38100  0.24650  Biso   1.000  C
  C128     1.0000 0.37190  0.36420  0.21880  Biso   1.000  C
  H105     1.0000 0.35160  0.34590  0.18160  Biso   1.000  H
  C129     1.0000 0.42510  0.37420  0.24560  Biso   1.000  C
  H106     1.0000 0.44110  0.36280  0.22670  Biso   1.000  H
  C130     1.0000 0.45480  0.40100  0.30010  Biso   1.000  C
  C131     1.0000 0.43140  0.41780  0.32780  Biso   1.000  C
  H107     1.0000 0.45170  0.43620  0.36510  Biso   1.000  H
  C132     1.0000 0.37820  0.40790  0.30100  Biso   1.000  C
  H108     1.0000 0.36220  0.41930  0.31990  Biso   1.000  H
  O8       1.0000 0.51050  0.41020  0.33080  Biso   1.000  O
  Cd5      1.0000 0.27121  0.93804  0.42380  Biso   1.000  Cd
  Cd6      1.0000 0.07574  0.23953  0.04880  Biso   1.000  Cd
  C133     1.0000 0.03690  0.94480  0.37700  Biso   1.000  C
  H109     1.0000 0.03910  0.94310  0.41950  Biso   1.000  H
  H110     1.0000 0.01880  0.96940  0.35170  Biso   1.000  H
  C134     1.0000 0.09340  0.93910  0.39420  Biso   1.000  C
  C135     1.0000 0.13690  0.91610  0.44690  Biso   1.000  C
  H111     1.0000 0.13280  0.90040  0.47550  Biso   1.000  H
  C136     1.0000 0.18650  0.91620  0.45790  Biso   1.000  C
  H112     1.0000 0.21620  0.90050  0.49390  Biso   1.000  H
  N21      1.0000 0.19250  0.93920  0.41610  Biso   1.000  N
  C137     1.0000 0.14900  0.96210  0.36330  Biso   1.000  C
  C138     1.0000 0.09950  0.96210  0.35240  Biso   1.000  C
  H113     1.0000 0.06970  0.97770  0.31630  Biso   1.000  H
  C139     1.0000 0.15450  0.98410  0.31700  Biso   1.000  C
  N22      1.0000 0.20680  0.97970  0.33070  Biso   1.000  N
  C140     1.0000 0.21350  0.99860  0.28300  Biso   1.000  C
  H114     1.0000 0.24620  0.99440  0.28880  Biso   1.000  H
  C141     1.0000 0.17380  0.02240  0.23100  Biso   1.000  C
  H115     1.0000 0.18060  0.03540  0.20250  Biso   1.000  H
  C142     1.0000 0.12800  0.02780  0.21800  Biso   1.000  C
  C143     1.0000 0.11740  0.00990  0.26600  Biso   1.000  C
  H116     1.0000 0.08530  0.01650  0.26060  Biso   1.000  H
  C144     1.0000 0.08460  0.05550  0.16700  Biso   1.000  C
  H117     1.0000 0.05000  0.04190  0.12980  Biso   1.000  H
  H118     1.0000 0.07710  0.07440  0.19100  Biso   1.000  H
  O9       1.0000 0.10860  0.07350  0.13990  Biso   1.000  O
  C145     1.0000 0.07280  0.09710  0.08550  Biso   1.000  C
  C146     1.0000 0.09950  0.11560  0.06360  Biso   1.000  C
  H119     1.0000 0.13700  0.10980  0.08580  Biso   1.000  H
  C147     1.0000 0.07150  0.14250  0.00920  Biso   1.000  C
  H120     1.0000 0.08970  0.15520  0.99420  Biso   1.000  H
  C148     1.0000 0.01670  0.15100  0.97670  Biso   1.000  C
  C149     1.0000 0.99000  0.13250  0.99860  Biso   1.000  C
  H121     1.0000 0.95250  0.13830  0.97640  Biso   1.000  H
  C150     1.0000 0.01800  0.10560  0.05300  Biso   1.000  C
  H122     1.0000 0.99980  0.09290  0.06800  Biso   1.000  H
  C151     1.0000 0.97700  0.17650  0.90400  Biso   1.000  C
  H123     1.0000 0.98220  0.16890  0.86920  Biso   1.000  H
  H124     1.0000 0.93790  0.17410  0.88290  Biso   1.000  H
  N23      1.0000 0.99930  0.21790  0.93300  Biso   1.000  N
  C152     1.0000 0.97800  0.23950  0.87800  Biso   1.000  C
  H125     1.0000 0.95230  0.23000  0.83070  Biso   1.000  H
  C153     1.0000 0.99880  0.28300  0.89500  Biso   1.000  C
  N24      1.0000 0.04050  0.29120  0.96600  Biso   1.000  N
  C154     1.0000 0.06150  0.32850  0.98680  Biso   1.000  C
  C155     1.0000 0.04090  0.35770  0.93700  Biso   1.000  C
  H126     1.0000 0.05520  0.38330  0.95080  Biso   1.000  H
  C156     1.0000 0.99920  0.34960  0.86600  Biso   1.000  C
  H127     1.0000 0.98510  0.36950  0.83150  Biso   1.000  H
  C157     1.0000 0.97820  0.31220  0.84510  Biso   1.000  C
  H128     1.0000 0.94980  0.30660  0.79660  Biso   1.000  H
  C158     1.0000 0.10050  0.33420  0.06100  Biso   1.000  C
  H129     1.0000 0.11320  0.35980  0.07830  Biso   1.000  H
  N25      1.0000 0.11950  0.30590  0.10600  Biso   1.000  N
  C159     1.0000 0.16000  0.30860  0.18300  Biso   1.000  C
  H130     1.0000 0.17460  0.33540  0.19560  Biso   1.000  H
  H131     1.0000 0.19120  0.29110  0.19910  Biso   1.000  H
  C160     1.0000 0.13680  0.29780  0.22340  Biso   1.000  C
  C161     1.0000 0.08830  0.31460  0.20370  Biso   1.000  C
  H132     1.0000 0.07010  0.33370  0.16760  Biso   1.000  H
  C162     1.0000 0.06660  0.30350  0.23700  Biso   1.000  C
  H133     1.0000 0.03350  0.31500  0.22340  Biso   1.000  H
  C163     1.0000 0.09330  0.27560  0.28980  Biso   1.000  C
  C164     1.0000 0.14170  0.25880  0.30950  Biso   1.000  C
  H134     1.0000 0.15990  0.23970  0.34560  Biso   1.000  H
  C165     1.0000 0.16340  0.26990  0.27630  Biso   1.000  C
  H135     1.0000 0.19650  0.25840  0.28980  Biso   1.000  H
  O10      1.0000 0.07050  0.26900  0.32100  Biso   1.000  O
  C166     1.0000 0.91000  0.23840  0.12800  Biso   1.000  C
  H136     1.0000 0.87210  0.24470  0.08430  Biso   1.000  H
  H137     1.0000 0.90790  0.21370  0.14700  Biso   1.000  H
  C167     1.0000 0.94870  0.23450  0.11040  Biso   1.000  C
  C168     1.0000 0.93170  0.25780  0.05330  Biso   1.000  C
  H138     1.0000 0.89830  0.27200  0.02930  Biso   1.000  H
  C169     1.0000 0.96350  0.26030  0.03120  Biso   1.000  C
  H139     1.0000 0.95180  0.27620  0.99220  Biso   1.000  H
  N26      1.0000 0.01230  0.23940  0.06630  Biso   1.000  N
  C170     1.0000 0.02930  0.21610  0.12340  Biso   1.000  C
  C171     1.0000 0.99750  0.21360  0.14540  Biso   1.000  C
  H140     1.0000 0.00920  0.19770  0.18450  Biso   1.000  H
  C172     1.0000 0.07460  0.19150  0.16250  Biso   1.000  C
  N27      1.0000 0.10620  0.19860  0.14120  Biso   1.000  N
  C173     1.0000 0.15800  0.18190  0.17740  Biso   1.000  C
  H141     1.0000 0.17960  0.18680  0.16280  Biso   1.000  H
  C174     1.0000 0.17820  0.15800  0.23510  Biso   1.000  C
  H142     1.0000 0.21370  0.14660  0.25990  Biso   1.000  H
  C175     1.0000 0.14660  0.15090  0.25640  Biso   1.000  C
  C176     1.0000 0.09480  0.16760  0.22020  Biso   1.000  C
  H143     1.0000 0.07320  0.16270  0.23480  Biso   1.000  H
  C177     1.0000 0.16320  0.12300  0.31800  Biso   1.000  C
  H144     1.0000 0.13580  0.10190  0.30010  Biso   1.000  H
  H145     1.0000 0.16670  0.13720  0.35560  Biso   1.000  H
  O11      1.0000 0.22080  0.10630  0.34420  Biso   1.000  O
  C178     1.0000 0.23960  0.08070  0.39480  Biso   1.000  C
  C179     1.0000 0.29000  0.06650  0.41710  Biso   1.000  C
  H146     1.0000 0.30430  0.07440  0.39380  Biso   1.000  H
  C180     1.0000 0.31960  0.04070  0.47300  Biso   1.000  C
  H147     1.0000 0.35400  0.03100  0.48850  Biso   1.000  H
  C181     1.0000 0.29870  0.02910  0.50720  Biso   1.000  C
  C182     1.0000 0.24820  0.04320  0.48500  Biso   1.000  C
  H148     1.0000 0.23400  0.03530  0.50820  Biso   1.000  H
  C183     1.0000 0.21870  0.06900  0.42900  Biso   1.000  C
  H149     1.0000 0.18420  0.07870  0.41360  Biso   1.000  H
  C184     1.0000 0.33900  0.00400  0.58200  Biso   1.000  C
  H150     1.0000 0.37800  0.01050  0.60940  Biso   1.000  H
  H151     1.0000 0.32710  0.00600  0.61130  Biso   1.000  H
  N28      1.0000 0.32550  0.96060  0.54600  Biso   1.000  N
  C185     1.0000 0.35000  0.93440  0.59300  Biso   1.000  C
  H152     1.0000 0.37330  0.94120  0.64110  Biso   1.000  H
  C186     1.0000 0.34300  0.89210  0.57100  Biso   1.000  C
  N29      1.0000 0.31250  0.88370  0.50000  Biso   1.000  N
  C187     1.0000 0.30560  0.84550  0.47740  Biso   1.000  C
  C188     1.0000 0.32910  0.81560  0.52700  Biso   1.000  C
  H153     1.0000 0.32440  0.78950  0.51160  Biso   1.000  H
  C189     1.0000 0.35960  0.82400  0.59800  Biso   1.000  C
  H154     1.0000 0.37570  0.80360  0.63170  Biso   1.000  H
  C190     1.0000 0.36660  0.86230  0.62020  Biso   1.000  C
  H155     1.0000 0.38740  0.86800  0.66900  Biso   1.000  H
  C191     1.0000 0.26930  0.84890  0.39800  Biso   1.000  C
  H156     1.0000 0.26070  0.82530  0.37250  Biso   1.000  H
  N30      1.0000 0.24980  0.87830  0.36200  Biso   1.000  N
  C192     1.0000 0.21300  0.86720  0.28700  Biso   1.000  C
  H157     1.0000 0.21390  0.83880  0.28170  Biso   1.000  H
  H158     1.0000 0.22500  0.88000  0.26170  Biso   1.000  H
  C193     1.0000 0.15150  0.88100  0.25350  Biso   1.000  C
  C194     1.0000 0.12810  0.86420  0.28120  Biso   1.000  C
  H159     1.0000 0.14840  0.84590  0.31840  Biso   1.000  H
  C195     1.0000 0.07490  0.87420  0.25440  Biso   1.000  C
  H160     1.0000 0.05890  0.86280  0.27330  Biso   1.000  H
  C196     1.0000 0.04520  0.90100  0.19990  Biso   1.000  C
  C197     1.0000 0.06860  0.91780  0.17220  Biso   1.000  C
  H161     1.0000 0.04830  0.93620  0.13490  Biso   1.000  H
  C198     1.0000 0.12180  0.90790  0.19900  Biso   1.000  C
  H162     1.0000 0.13780  0.91930  0.18010  Biso   1.000  H
  O12      1.0000 0.98950  0.91020  0.16920  Biso   1.000  O
  Cd7      1.0000 0.72879  0.93804  0.07620  Biso   1.000  Cd
  Cd8      1.0000 0.92426  0.23953  0.45120  Biso   1.000  Cd
  C199     1.0000 0.96310  0.94480  0.12300  Biso   1.000  C
  H163     1.0000 0.96090  0.94310  0.08050  Biso   1.000  H
  H164     1.0000 0.98120  0.96940  0.14830  Biso   1.000  H
  C200     1.0000 0.90660  0.93910  0.10580  Biso   1.000  C
  C201     1.0000 0.86310  0.91610  0.05310  Biso   1.000  C
  H165     1.0000 0.86720  0.90040  0.02450  Biso   1.000  H
  C202     1.0000 0.81350  0.91620  0.04210  Biso   1.000  C
  H166     1.0000 0.78380  0.90050  0.00610  Biso   1.000  H
  N31      1.0000 0.80750  0.93920  0.08390  Biso   1.000  N
  C203     1.0000 0.85100  0.96210  0.13670  Biso   1.000  C
  C204     1.0000 0.90050  0.96210  0.14760  Biso   1.000  C
  H167     1.0000 0.93030  0.97770  0.18370  Biso   1.000  H
  C205     1.0000 0.84550  0.98410  0.18300  Biso   1.000  C
  N32      1.0000 0.79320  0.97970  0.16930  Biso   1.000  N
  C206     1.0000 0.78650  0.99860  0.21700  Biso   1.000  C
  H168     1.0000 0.75380  0.99440  0.21120  Biso   1.000  H
  C207     1.0000 0.82620  0.02240  0.26900  Biso   1.000  C
  H169     1.0000 0.81940  0.03540  0.29750  Biso   1.000  H
  C208     1.0000 0.87200  0.02780  0.28200  Biso   1.000  C
  C209     1.0000 0.88260  0.00990  0.23400  Biso   1.000  C
  H170     1.0000 0.91470  0.01650  0.23940  Biso   1.000  H
  C210     1.0000 0.91540  0.05550  0.33300  Biso   1.000  C
  H171     1.0000 0.95000  0.04190  0.37020  Biso   1.000  H
  H172     1.0000 0.92290  0.07440  0.30900  Biso   1.000  H
  O13      1.0000 0.89140  0.07350  0.36010  Biso   1.000  O
  C211     1.0000 0.92720  0.09710  0.41450  Biso   1.000  C
  C212     1.0000 0.90050  0.11560  0.43640  Biso   1.000  C
  H173     1.0000 0.86300  0.10980  0.41420  Biso   1.000  H
  C213     1.0000 0.92850  0.14250  0.49080  Biso   1.000  C
  H174     1.0000 0.91030  0.15520  0.50580  Biso   1.000  H
  C214     1.0000 0.98330  0.15100  0.52330  Biso   1.000  C
  C215     1.0000 0.01000  0.13250  0.50140  Biso   1.000  C
  H175     1.0000 0.04750  0.13830  0.52360  Biso   1.000  H
  C216     1.0000 0.98200  0.10560  0.44700  Biso   1.000  C
  H176     1.0000 0.00020  0.09290  0.43200  Biso   1.000  H
  C217     1.0000 0.02300  0.17650  0.59600  Biso   1.000  C
  H177     1.0000 0.01780  0.16890  0.63080  Biso   1.000  H
  H178     1.0000 0.06210  0.17410  0.61710  Biso   1.000  H
  N33      1.0000 0.00070  0.21790  0.56700  Biso   1.000  N
  C218     1.0000 0.02200  0.23950  0.62200  Biso   1.000  C
  H179     1.0000 0.04770  0.23000  0.66930  Biso   1.000  H
  C219     1.0000 0.00120  0.28300  0.60500  Biso   1.000  C
  N34      1.0000 0.95950  0.29120  0.53400  Biso   1.000  N
  C220     1.0000 0.93850  0.32850  0.51320  Biso   1.000  C
  C221     1.0000 0.95910  0.35770  0.56300  Biso   1.000  C
  H180     1.0000 0.94480  0.38330  0.54920  Biso   1.000  H
  C222     1.0000 0.00080  0.34960  0.63400  Biso   1.000  C
  H181     1.0000 0.01490  0.36950  0.66850  Biso   1.000  H
  C223     1.0000 0.02180  0.31220  0.65490  Biso   1.000  C
  H182     1.0000 0.05020  0.30660  0.70340  Biso   1.000  H
  C224     1.0000 0.89950  0.33420  0.43900  Biso   1.000  C
  H183     1.0000 0.88680  0.35980  0.42170  Biso   1.000  H
  N35      1.0000 0.88050  0.30590  0.39400  Biso   1.000  N
  C225     1.0000 0.84000  0.30860  0.31700  Biso   1.000  C
  H184     1.0000 0.82540  0.33540  0.30440  Biso   1.000  H
  H185     1.0000 0.80880  0.29110  0.30090  Biso   1.000  H
  C226     1.0000 0.86320  0.29780  0.27660  Biso   1.000  C
  C227     1.0000 0.91170  0.31460  0.29630  Biso   1.000  C
  H186     1.0000 0.92990  0.33370  0.33240  Biso   1.000  H
  C228     1.0000 0.93340  0.30350  0.26300  Biso   1.000  C
  H187     1.0000 0.96650  0.31500  0.27660  Biso   1.000  H
  C229     1.0000 0.90670  0.27560  0.21020  Biso   1.000  C
  C230     1.0000 0.85830  0.25880  0.19050  Biso   1.000  C
  H188     1.0000 0.84010  0.23970  0.15440  Biso   1.000  H
  C231     1.0000 0.83660  0.26990  0.22370  Biso   1.000  C
  H189     1.0000 0.80350  0.25840  0.21020  Biso   1.000  H
  O14      1.0000 0.92950  0.26900  0.17900  Biso   1.000  O
  C232     1.0000 0.09000  0.23840  0.37200  Biso   1.000  C
  H190     1.0000 0.12790  0.24470  0.41570  Biso   1.000  H
  H191     1.0000 0.09210  0.21370  0.35300  Biso   1.000  H
  C233     1.0000 0.05130  0.23450  0.38960  Biso   1.000  C
  C234     1.0000 0.06830  0.25780  0.44670  Biso   1.000  C
  H192     1.0000 0.10170  0.27200  0.47070  Biso   1.000  H
  C235     1.0000 0.03650  0.26030  0.46880  Biso   1.000  C
  H193     1.0000 0.04820  0.27620  0.50780  Biso   1.000  H
  N36      1.0000 0.98770  0.23940  0.43370  Biso   1.000  N
  C236     1.0000 0.97070  0.21610  0.37660  Biso   1.000  C
  C237     1.0000 0.00250  0.21360  0.35460  Biso   1.000  C
  H194     1.0000 0.99080  0.19770  0.31550  Biso   1.000  H
  C238     1.0000 0.92540  0.19150  0.33750  Biso   1.000  C
  N37      1.0000 0.89380  0.19860  0.35880  Biso   1.000  N
  C239     1.0000 0.84200  0.18190  0.32260  Biso   1.000  C
  H195     1.0000 0.82040  0.18680  0.33720  Biso   1.000  H
  C240     1.0000 0.82180  0.15800  0.26490  Biso   1.000  C
  H196     1.0000 0.78630  0.14660  0.24010  Biso   1.000  H
  C241     1.0000 0.85340  0.15090  0.24360  Biso   1.000  C
  C242     1.0000 0.90520  0.16760  0.27980  Biso   1.000  C
  H197     1.0000 0.92680  0.16270  0.26520  Biso   1.000  H
  C243     1.0000 0.83680  0.12300  0.18200  Biso   1.000  C
  H198     1.0000 0.86420  0.10190  0.19990  Biso   1.000  H
  H199     1.0000 0.83330  0.13720  0.14440  Biso   1.000  H
  O15      1.0000 0.77920  0.10630  0.15580  Biso   1.000  O
  C244     1.0000 0.76040  0.08070  0.10520  Biso   1.000  C
  C245     1.0000 0.71000  0.06650  0.08290  Biso   1.000  C
  H200     1.0000 0.69570  0.07440  0.10620  Biso   1.000  H
  C246     1.0000 0.68040  0.04070  0.02700  Biso   1.000  C
  H201     1.0000 0.64600  0.03100  0.01150  Biso   1.000  H
  C247     1.0000 0.70130  0.02910  0.99280  Biso   1.000  C
  C248     1.0000 0.75180  0.04320  0.01500  Biso   1.000  C
  H202     1.0000 0.76600  0.03530  0.99180  Biso   1.000  H
  C249     1.0000 0.78130  0.06900  0.07100  Biso   1.000  C
  H203     1.0000 0.81580  0.07870  0.08640  Biso   1.000  H
  C250     1.0000 0.66100  0.00400  0.91800  Biso   1.000  C
  H204     1.0000 0.62200  0.01050  0.89060  Biso   1.000  H
  H205     1.0000 0.67290  0.00600  0.88870  Biso   1.000  H
  N38      1.0000 0.67450  0.96060  0.95400  Biso   1.000  N
  C251     1.0000 0.65000  0.93440  0.90700  Biso   1.000  C
  H206     1.0000 0.62670  0.94120  0.85890  Biso   1.000  H
  C252     1.0000 0.65700  0.89210  0.92900  Biso   1.000  C
  N39      1.0000 0.68750  0.88370  0.00000  Biso   1.000  N
  C253     1.0000 0.69440  0.84550  0.02260  Biso   1.000  C
  C254     1.0000 0.67090  0.81560  0.97300  Biso   1.000  C
  H207     1.0000 0.67560  0.78950  0.98840  Biso   1.000  H
  C255     1.0000 0.64040  0.82400  0.90200  Biso   1.000  C
  H208     1.0000 0.62430  0.80360  0.86830  Biso   1.000  H
  C256     1.0000 0.63340  0.86230  0.87980  Biso   1.000  C
  H209     1.0000 0.61260  0.86800  0.83100  Biso   1.000  H
  C257     1.0000 0.73070  0.84890  0.10200  Biso   1.000  C
  H210     1.0000 0.73930  0.82530  0.12750  Biso   1.000  H
  N40      1.0000 0.75020  0.87830  0.13800  Biso   1.000  N
  C258     1.0000 0.78700  0.86720  0.21300  Biso   1.000  C
  H211     1.0000 0.78610  0.83880  0.21830  Biso   1.000  H
  H212     1.0000 0.77500  0.88000  0.23830  Biso   1.000  H
  C259     1.0000 0.84850  0.88100  0.24650  Biso   1.000  C
  C260     1.0000 0.87190  0.86420  0.21880  Biso   1.000  C
  H213     1.0000 0.85160  0.84590  0.18160  Biso   1.000  H
  C261     1.0000 0.92510  0.87420  0.24560  Biso   1.000  C
  H214     1.0000 0.94110  0.86280  0.22670  Biso   1.000  H
  C262     1.0000 0.95480  0.90100  0.30010  Biso   1.000  C
  C263     1.0000 0.93140  0.91780  0.32780  Biso   1.000  C
  H215     1.0000 0.95170  0.93620  0.36510  Biso   1.000  H
  C264     1.0000 0.87820  0.90790  0.30100  Biso   1.000  C
  H216     1.0000 0.86220  0.91930  0.31990  Biso   1.000  H
  O16      1.0000 0.01050  0.91020  0.33080  Biso   1.000  O
  Cd9      1.0000 0.22879  0.56196  0.57620  Biso   1.000  Cd
  Cd10     1.0000 0.42426  0.26047  0.95120  Biso   1.000  Cd
  C265     1.0000 0.46310  0.55520  0.62300  Biso   1.000  C
  H217     1.0000 0.46090  0.55690  0.58050  Biso   1.000  H
  H218     1.0000 0.48120  0.53060  0.64830  Biso   1.000  H
  C266     1.0000 0.40660  0.56090  0.60580  Biso   1.000  C
  C267     1.0000 0.36310  0.58390  0.55310  Biso   1.000  C
  H219     1.0000 0.36720  0.59960  0.52450  Biso   1.000  H
  C268     1.0000 0.31350  0.58380  0.54210  Biso   1.000  C
  H220     1.0000 0.28380  0.59950  0.50610  Biso   1.000  H
  N41      1.0000 0.30750  0.56080  0.58390  Biso   1.000  N
  C269     1.0000 0.35100  0.53790  0.63670  Biso   1.000  C
  C270     1.0000 0.40050  0.53790  0.64760  Biso   1.000  C
  H221     1.0000 0.43030  0.52230  0.68370  Biso   1.000  H
  C271     1.0000 0.34550  0.51590  0.68300  Biso   1.000  C
  N42      1.0000 0.29320  0.52030  0.66930  Biso   1.000  N
  C272     1.0000 0.28650  0.50140  0.71700  Biso   1.000  C
  H222     1.0000 0.25380  0.50560  0.71120  Biso   1.000  H
  C273     1.0000 0.32620  0.47760  0.76900  Biso   1.000  C
  H223     1.0000 0.31940  0.46460  0.79750  Biso   1.000  H
  C274     1.0000 0.37200  0.47220  0.78200  Biso   1.000  C
  C275     1.0000 0.38260  0.49010  0.73400  Biso   1.000  C
  H224     1.0000 0.41470  0.48350  0.73940  Biso   1.000  H
  C276     1.0000 0.41540  0.44450  0.83300  Biso   1.000  C
  H225     1.0000 0.45000  0.45810  0.87020  Biso   1.000  H
  H226     1.0000 0.42290  0.42560  0.80900  Biso   1.000  H
  O17      1.0000 0.39140  0.42650  0.86010  Biso   1.000  O
  C277     1.0000 0.42720  0.40290  0.91450  Biso   1.000  C
  C278     1.0000 0.40050  0.38440  0.93640  Biso   1.000  C
  H227     1.0000 0.36300  0.39020  0.91420  Biso   1.000  H
  C279     1.0000 0.42850  0.35750  0.99080  Biso   1.000  C
  H228     1.0000 0.41030  0.34480  0.00580  Biso   1.000  H
  C280     1.0000 0.48330  0.34900  0.02330  Biso   1.000  C
  C281     1.0000 0.51000  0.36750  0.00140  Biso   1.000  C
  H229     1.0000 0.54750  0.36170  0.02360  Biso   1.000  H
  C282     1.0000 0.48200  0.39440  0.94700  Biso   1.000  C
  H230     1.0000 0.50020  0.40710  0.93200  Biso   1.000  H
  C283     1.0000 0.52300  0.32350  0.09600  Biso   1.000  C
  H231     1.0000 0.51780  0.33110  0.13080  Biso   1.000  H
  H232     1.0000 0.56210  0.32590  0.11710  Biso   1.000  H
  N43      1.0000 0.50070  0.28210  0.06700  Biso   1.000  N
  C284     1.0000 0.52200  0.26050  0.12200  Biso   1.000  C
  H233     1.0000 0.54770  0.27000  0.16930  Biso   1.000  H
  C285     1.0000 0.50120  0.21700  0.10500  Biso   1.000  C
  N44      1.0000 0.45950  0.20880  0.03400  Biso   1.000  N
  C286     1.0000 0.43850  0.17150  0.01320  Biso   1.000  C
  C287     1.0000 0.45910  0.14230  0.06300  Biso   1.000  C
  H234     1.0000 0.44480  0.11670  0.04920  Biso   1.000  H
  C288     1.0000 0.50080  0.15040  0.13400  Biso   1.000  C
  H235     1.0000 0.51490  0.13050  0.16850  Biso   1.000  H
  C289     1.0000 0.52180  0.18780  0.15490  Biso   1.000  C
  H236     1.0000 0.55020  0.19340  0.20340  Biso   1.000  H
  C290     1.0000 0.39950  0.16580  0.93900  Biso   1.000  C
  H237     1.0000 0.38680  0.14020  0.92170  Biso   1.000  H
  N45      1.0000 0.38050  0.19410  0.89400  Biso   1.000  N
  C291     1.0000 0.34000  0.19140  0.81700  Biso   1.000  C
  H238     1.0000 0.32540  0.16460  0.80440  Biso   1.000  H
  H239     1.0000 0.30880  0.20890  0.80090  Biso   1.000  H
  C292     1.0000 0.36320  0.20220  0.77660  Biso   1.000  C
  C293     1.0000 0.41170  0.18540  0.79630  Biso   1.000  C
  H240     1.0000 0.42990  0.16630  0.83240  Biso   1.000  H
  C294     1.0000 0.43340  0.19650  0.76300  Biso   1.000  C
  H241     1.0000 0.46650  0.18500  0.77660  Biso   1.000  H
  C295     1.0000 0.40670  0.22440  0.71020  Biso   1.000  C
  C296     1.0000 0.35830  0.24120  0.69050  Biso   1.000  C
  H242     1.0000 0.34010  0.26030  0.65440  Biso   1.000  H
  C297     1.0000 0.33660  0.23010  0.72370  Biso   1.000  C
  H243     1.0000 0.30350  0.24160  0.71020  Biso   1.000  H
  O18      1.0000 0.42950  0.23100  0.67900  Biso   1.000  O
  C298     1.0000 0.59000  0.26160  0.87200  Biso   1.000  C
  H244     1.0000 0.62790  0.25530  0.91570  Biso   1.000  H
  H245     1.0000 0.59210  0.28630  0.85300  Biso   1.000  H
  C299     1.0000 0.55130  0.26550  0.88960  Biso   1.000  C
  C300     1.0000 0.56830  0.24220  0.94670  Biso   1.000  C
  H246     1.0000 0.60170  0.22800  0.97070  Biso   1.000  H
  C301     1.0000 0.53650  0.23970  0.96880  Biso   1.000  C
  H247     1.0000 0.54820  0.22380  0.00780  Biso   1.000  H
  N46      1.0000 0.48770  0.26060  0.93370  Biso   1.000  N
  C302     1.0000 0.47070  0.28390  0.87660  Biso   1.000  C
  C303     1.0000 0.50250  0.28640  0.85460  Biso   1.000  C
  H248     1.0000 0.49080  0.30230  0.81550  Biso   1.000  H
  C304     1.0000 0.42540  0.30850  0.83750  Biso   1.000  C
  N47      1.0000 0.39380  0.30140  0.85880  Biso   1.000  N
  C305     1.0000 0.34200  0.31810  0.82260  Biso   1.000  C
  H249     1.0000 0.32040  0.31320  0.83720  Biso   1.000  H
  C306     1.0000 0.32180  0.34200  0.76490  Biso   1.000  C
  H250     1.0000 0.28630  0.35340  0.74010  Biso   1.000  H
  C307     1.0000 0.35340  0.34910  0.74360  Biso   1.000  C
  C308     1.0000 0.40520  0.33240  0.77980  Biso   1.000  C
  H251     1.0000 0.42680  0.33730  0.76520  Biso   1.000  H
  C309     1.0000 0.33680  0.37700  0.68200  Biso   1.000  C
  H252     1.0000 0.36420  0.39810  0.69990  Biso   1.000  H
  H253     1.0000 0.33330  0.36280  0.64440  Biso   1.000  H
  O19      1.0000 0.27920  0.39370  0.65580  Biso   1.000  O
  C310     1.0000 0.26040  0.41930  0.60520  Biso   1.000  C
  C311     1.0000 0.21000  0.43350  0.58290  Biso   1.000  C
  H254     1.0000 0.19570  0.42560  0.60620  Biso   1.000  H
  C312     1.0000 0.18040  0.45930  0.52700  Biso   1.000  C
  H255     1.0000 0.14600  0.46900  0.51150  Biso   1.000  H
  C313     1.0000 0.20130  0.47090  0.49280  Biso   1.000  C
  C314     1.0000 0.25180  0.45680  0.51500  Biso   1.000  C
  H256     1.0000 0.26600  0.46470  0.49180  Biso   1.000  H
  C315     1.0000 0.28130  0.43100  0.57100  Biso   1.000  C
  H257     1.0000 0.31580  0.42130  0.58640  Biso   1.000  H
  C316     1.0000 0.16100  0.49600  0.41800  Biso   1.000  C
  H258     1.0000 0.12200  0.48950  0.39060  Biso   1.000  H
  H259     1.0000 0.17290  0.49400  0.38870  Biso   1.000  H
  N48      1.0000 0.17450  0.53940  0.45400  Biso   1.000  N
  C317     1.0000 0.15000  0.56560  0.40700  Biso   1.000  C
  H260     1.0000 0.12670  0.55880  0.35890  Biso   1.000  H
  C318     1.0000 0.15700  0.60790  0.42900  Biso   1.000  C
  N49      1.0000 0.18750  0.61630  0.50000  Biso   1.000  N
  C319     1.0000 0.19440  0.65450  0.52260  Biso   1.000  C
  C320     1.0000 0.17090  0.68440  0.47300  Biso   1.000  C
  H261     1.0000 0.17560  0.71050  0.48840  Biso   1.000  H
  C321     1.0000 0.14040  0.67600  0.40200  Biso   1.000  C
  H262     1.0000 0.12430  0.69640  0.36830  Biso   1.000  H
  C322     1.0000 0.13340  0.63770  0.37980  Biso   1.000  C
  H263     1.0000 0.11260  0.63200  0.33100  Biso   1.000  H
  C323     1.0000 0.23070  0.65110  0.60200  Biso   1.000  C
  H264     1.0000 0.23930  0.67470  0.62750  Biso   1.000  H
  N50      1.0000 0.25020  0.62170  0.63800  Biso   1.000  N
  C324     1.0000 0.28700  0.63280  0.71300  Biso   1.000  C
  H265     1.0000 0.28610  0.66120  0.71830  Biso   1.000  H
  H266     1.0000 0.27500  0.62000  0.73830  Biso   1.000  H
  C325     1.0000 0.34850  0.61900  0.74650  Biso   1.000  C
  C326     1.0000 0.37190  0.63580  0.71880  Biso   1.000  C
  H267     1.0000 0.35160  0.65410  0.68160  Biso   1.000  H
  C327     1.0000 0.42510  0.62580  0.74560  Biso   1.000  C
  H268     1.0000 0.44110  0.63720  0.72670  Biso   1.000  H
  C328     1.0000 0.45480  0.59900  0.80010  Biso   1.000  C
  C329     1.0000 0.43140  0.58220  0.82780  Biso   1.000  C
  H269     1.0000 0.45170  0.56380  0.86510  Biso   1.000  H
  C330     1.0000 0.37820  0.59210  0.80100  Biso   1.000  C
  H270     1.0000 0.36220  0.58070  0.81990  Biso   1.000  H
  O20      1.0000 0.51050  0.58980  0.83080  Biso   1.000  O
  Cd11     1.0000 0.77121  0.56196  0.92380  Biso   1.000  Cd
  Cd12     1.0000 0.57574  0.26047  0.54880  Biso   1.000  Cd
  C331     1.0000 0.53690  0.55520  0.87700  Biso   1.000  C
  H271     1.0000 0.53910  0.55690  0.91950  Biso   1.000  H
  H272     1.0000 0.51880  0.53060  0.85170  Biso   1.000  H
  C332     1.0000 0.59340  0.56090  0.89420  Biso   1.000  C
  C333     1.0000 0.63690  0.58390  0.94690  Biso   1.000  C
  H273     1.0000 0.63280  0.59960  0.97550  Biso   1.000  H
  C334     1.0000 0.68650  0.58380  0.95790  Biso   1.000  C
  H274     1.0000 0.71620  0.59950  0.99390  Biso   1.000  H
  N51      1.0000 0.69250  0.56080  0.91610  Biso   1.000  N
  C335     1.0000 0.64900  0.53790  0.86330  Biso   1.000  C
  C336     1.0000 0.59950  0.53790  0.85240  Biso   1.000  C
  H275     1.0000 0.56970  0.52230  0.81630  Biso   1.000  H
  C337     1.0000 0.65450  0.51590  0.81700  Biso   1.000  C
  N52      1.0000 0.70680  0.52030  0.83070  Biso   1.000  N
  C338     1.0000 0.71350  0.50140  0.78300  Biso   1.000  C
  H276     1.0000 0.74620  0.50560  0.78880  Biso   1.000  H
  C339     1.0000 0.67380  0.47760  0.73100  Biso   1.000  C
  H277     1.0000 0.68060  0.46460  0.70250  Biso   1.000  H
  C340     1.0000 0.62800  0.47220  0.71800  Biso   1.000  C
  C341     1.0000 0.61740  0.49010  0.76600  Biso   1.000  C
  H278     1.0000 0.58530  0.48350  0.76060  Biso   1.000  H
  C342     1.0000 0.58460  0.44450  0.66700  Biso   1.000  C
  H279     1.0000 0.55000  0.45810  0.62980  Biso   1.000  H
  H280     1.0000 0.57710  0.42560  0.69100  Biso   1.000  H
  O21      1.0000 0.60860  0.42650  0.63990  Biso   1.000  O
  C343     1.0000 0.57280  0.40290  0.58550  Biso   1.000  C
  C344     1.0000 0.59950  0.38440  0.56360  Biso   1.000  C
  H281     1.0000 0.63700  0.39020  0.58580  Biso   1.000  H
  C345     1.0000 0.57150  0.35750  0.50920  Biso   1.000  C
  H282     1.0000 0.58970  0.34480  0.49420  Biso   1.000  H
  C346     1.0000 0.51670  0.34900  0.47670  Biso   1.000  C
  C347     1.0000 0.49000  0.36750  0.49860  Biso   1.000  C
  H283     1.0000 0.45250  0.36170  0.47640  Biso   1.000  H
  C348     1.0000 0.51800  0.39440  0.55300  Biso   1.000  C
  H284     1.0000 0.49980  0.40710  0.56800  Biso   1.000  H
  C349     1.0000 0.47700  0.32350  0.40400  Biso   1.000  C
  H285     1.0000 0.48220  0.33110  0.36920  Biso   1.000  H
  H286     1.0000 0.43790  0.32590  0.38290  Biso   1.000  H
  N53      1.0000 0.49930  0.28210  0.43300  Biso   1.000  N
  C350     1.0000 0.47800  0.26050  0.37800  Biso   1.000  C
  H287     1.0000 0.45230  0.27000  0.33070  Biso   1.000  H
  C351     1.0000 0.49880  0.21700  0.39500  Biso   1.000  C
  N54      1.0000 0.54050  0.20880  0.46600  Biso   1.000  N
  C352     1.0000 0.56150  0.17150  0.48680  Biso   1.000  C
  C353     1.0000 0.54090  0.14230  0.43700  Biso   1.000  C
  H288     1.0000 0.55520  0.11670  0.45080  Biso   1.000  H
  C354     1.0000 0.49920  0.15040  0.36600  Biso   1.000  C
  H289     1.0000 0.48510  0.13050  0.33150  Biso   1.000  H
  C355     1.0000 0.47820  0.18780  0.34510  Biso   1.000  C
  H290     1.0000 0.44980  0.19340  0.29660  Biso   1.000  H
  C356     1.0000 0.60050  0.16580  0.56100  Biso   1.000  C
  H291     1.0000 0.61320  0.14020  0.57830  Biso   1.000  H
  N55      1.0000 0.61950  0.19410  0.60600  Biso   1.000  N
  C357     1.0000 0.66000  0.19140  0.68300  Biso   1.000  C
  H292     1.0000 0.67460  0.16460  0.69560  Biso   1.000  H
  H293     1.0000 0.69120  0.20890  0.69910  Biso   1.000  H
  C358     1.0000 0.63680  0.20220  0.72340  Biso   1.000  C
  C359     1.0000 0.58830  0.18540  0.70370  Biso   1.000  C
  H294     1.0000 0.57010  0.16630  0.66760  Biso   1.000  H
  C360     1.0000 0.56660  0.19650  0.73700  Biso   1.000  C
  H295     1.0000 0.53350  0.18500  0.72340  Biso   1.000  H
  C361     1.0000 0.59330  0.22440  0.78980  Biso   1.000  C
  C362     1.0000 0.64170  0.24120  0.80950  Biso   1.000  C
  H296     1.0000 0.65990  0.26030  0.84560  Biso   1.000  H
  C363     1.0000 0.66340  0.23010  0.77630  Biso   1.000  C
  H297     1.0000 0.69650  0.24160  0.78980  Biso   1.000  H
  O22      1.0000 0.57050  0.23100  0.82100  Biso   1.000  O
  C364     1.0000 0.41000  0.26160  0.62800  Biso   1.000  C
  H298     1.0000 0.37210  0.25530  0.58430  Biso   1.000  H
  H299     1.0000 0.40790  0.28630  0.64700  Biso   1.000  H
  C365     1.0000 0.44870  0.26550  0.61040  Biso   1.000  C
  C366     1.0000 0.43170  0.24220  0.55330  Biso   1.000  C
  H300     1.0000 0.39830  0.22800  0.52930  Biso   1.000  H
  C367     1.0000 0.46350  0.23970  0.53120  Biso   1.000  C
  H301     1.0000 0.45180  0.22380  0.49220  Biso   1.000  H
  N56      1.0000 0.51230  0.26060  0.56630  Biso   1.000  N
  C368     1.0000 0.52930  0.28390  0.62340  Biso   1.000  C
  C369     1.0000 0.49750  0.28640  0.64540  Biso   1.000  C
  H302     1.0000 0.50920  0.30230  0.68450  Biso   1.000  H
  C370     1.0000 0.57460  0.30850  0.66250  Biso   1.000  C
  N57      1.0000 0.60620  0.30140  0.64120  Biso   1.000  N
  C371     1.0000 0.65800  0.31810  0.67740  Biso   1.000  C
  H303     1.0000 0.67960  0.31320  0.66280  Biso   1.000  H
  C372     1.0000 0.67820  0.34200  0.73510  Biso   1.000  C
  H304     1.0000 0.71370  0.35340  0.75990  Biso   1.000  H
  C373     1.0000 0.64660  0.34910  0.75640  Biso   1.000  C
  C374     1.0000 0.59480  0.33240  0.72020  Biso   1.000  C
  H305     1.0000 0.57320  0.33730  0.73480  Biso   1.000  H
  C375     1.0000 0.66320  0.37700  0.81800  Biso   1.000  C
  H306     1.0000 0.63580  0.39810  0.80010  Biso   1.000  H
  H307     1.0000 0.66670  0.36280  0.85560  Biso   1.000  H
  O23      1.0000 0.72080  0.39370  0.84420  Biso   1.000  O
  C376     1.0000 0.73960  0.41930  0.89480  Biso   1.000  C
  C377     1.0000 0.79000  0.43350  0.91710  Biso   1.000  C
  H308     1.0000 0.80430  0.42560  0.89380  Biso   1.000  H
  C378     1.0000 0.81960  0.45930  0.97300  Biso   1.000  C
  H309     1.0000 0.85400  0.46900  0.98850  Biso   1.000  H
  C379     1.0000 0.79870  0.47090  0.00720  Biso   1.000  C
  C380     1.0000 0.74820  0.45680  0.98500  Biso   1.000  C
  H310     1.0000 0.73400  0.46470  0.00820  Biso   1.000  H
  C381     1.0000 0.71870  0.43100  0.92900  Biso   1.000  C
  H311     1.0000 0.68420  0.42130  0.91360  Biso   1.000  H
  C382     1.0000 0.83900  0.49600  0.08200  Biso   1.000  C
  H312     1.0000 0.87800  0.48950  0.10940  Biso   1.000  H
  H313     1.0000 0.82710  0.49400  0.11130  Biso   1.000  H
  N58      1.0000 0.82550  0.53940  0.04600  Biso   1.000  N
  C383     1.0000 0.85000  0.56560  0.09300  Biso   1.000  C
  H314     1.0000 0.87330  0.55880  0.14110  Biso   1.000  H
  C384     1.0000 0.84300  0.60790  0.07100  Biso   1.000  C
  N59      1.0000 0.81250  0.61630  0.00000  Biso   1.000  N
  C385     1.0000 0.80560  0.65450  0.97740  Biso   1.000  C
  C386     1.0000 0.82910  0.68440  0.02700  Biso   1.000  C
  H315     1.0000 0.82440  0.71050  0.01160  Biso   1.000  H
  C387     1.0000 0.85960  0.67600  0.09800  Biso   1.000  C
  H316     1.0000 0.87570  0.69640  0.13170  Biso   1.000  H
  C388     1.0000 0.86660  0.63770  0.12020  Biso   1.000  C
  H317     1.0000 0.88740  0.63200  0.16900  Biso   1.000  H
  C389     1.0000 0.76930  0.65110  0.89800  Biso   1.000  C
  H318     1.0000 0.76070  0.67470  0.87250  Biso   1.000  H
  N60      1.0000 0.74980  0.62170  0.86200  Biso   1.000  N
  C390     1.0000 0.71300  0.63280  0.78700  Biso   1.000  C
  H319     1.0000 0.71390  0.66120  0.78170  Biso   1.000  H
  H320     1.0000 0.72500  0.62000  0.76170  Biso   1.000  H
  C391     1.0000 0.65150  0.61900  0.75350  Biso   1.000  C
  C392     1.0000 0.62810  0.63580  0.78120  Biso   1.000  C
  H321     1.0000 0.64840  0.65410  0.81840  Biso   1.000  H
  C393     1.0000 0.57490  0.62580  0.75440  Biso   1.000  C
  H322     1.0000 0.55890  0.63720  0.77330  Biso   1.000  H
  C394     1.0000 0.54520  0.59900  0.69990  Biso   1.000  C
  C395     1.0000 0.56860  0.58220  0.67220  Biso   1.000  C
  H323     1.0000 0.54830  0.56380  0.63490  Biso   1.000  H
  C396     1.0000 0.62180  0.59210  0.69900  Biso   1.000  C
  H324     1.0000 0.63780  0.58070  0.68010  Biso   1.000  H
  O24      1.0000 0.48950  0.58980  0.66920  Biso   1.000  O
  Cd13     1.0000 0.72879  0.06196  0.57620  Biso   1.000  Cd
  Cd14     1.0000 0.92426  0.76047  0.95120  Biso   1.000  Cd
  C397     1.0000 0.96310  0.05520  0.62300  Biso   1.000  C
  H325     1.0000 0.96090  0.05690  0.58050  Biso   1.000  H
  H326     1.0000 0.98120  0.03060  0.64830  Biso   1.000  H
  C398     1.0000 0.90660  0.06090  0.60580  Biso   1.000  C
  C399     1.0000 0.86310  0.08390  0.55310  Biso   1.000  C
  H327     1.0000 0.86720  0.09960  0.52450  Biso   1.000  H
  C400     1.0000 0.81350  0.08380  0.54210  Biso   1.000  C
  H328     1.0000 0.78380  0.09950  0.50610  Biso   1.000  H
  N61      1.0000 0.80750  0.06080  0.58390  Biso   1.000  N
  C401     1.0000 0.85100  0.03790  0.63670  Biso   1.000  C
  C402     1.0000 0.90050  0.03790  0.64760  Biso   1.000  C
  H329     1.0000 0.93030  0.02230  0.68370  Biso   1.000  H
  C403     1.0000 0.84550  0.01590  0.68300  Biso   1.000  C
  N62      1.0000 0.79320  0.02030  0.66930  Biso   1.000  N
  C404     1.0000 0.78650  0.00140  0.71700  Biso   1.000  C
  H330     1.0000 0.75380  0.00560  0.71120  Biso   1.000  H
  C405     1.0000 0.82620  0.97760  0.76900  Biso   1.000  C
  H331     1.0000 0.81940  0.96460  0.79750  Biso   1.000  H
  C406     1.0000 0.87200  0.97220  0.78200  Biso   1.000  C
  C407     1.0000 0.88260  0.99010  0.73400  Biso   1.000  C
  H332     1.0000 0.91470  0.98350  0.73940  Biso   1.000  H
  C408     1.0000 0.91540  0.94450  0.83300  Biso   1.000  C
  H333     1.0000 0.95000  0.95810  0.87020  Biso   1.000  H
  H334     1.0000 0.92290  0.92560  0.80900  Biso   1.000  H
  O25      1.0000 0.89140  0.92650  0.86010  Biso   1.000  O
  C409     1.0000 0.92720  0.90290  0.91450  Biso   1.000  C
  C410     1.0000 0.90050  0.88440  0.93640  Biso   1.000  C
  H335     1.0000 0.86300  0.89020  0.91420  Biso   1.000  H
  C411     1.0000 0.92850  0.85750  0.99080  Biso   1.000  C
  H336     1.0000 0.91030  0.84480  0.00580  Biso   1.000  H
  C412     1.0000 0.98330  0.84900  0.02330  Biso   1.000  C
  C413     1.0000 0.01000  0.86750  0.00140  Biso   1.000  C
  H337     1.0000 0.04750  0.86170  0.02360  Biso   1.000  H
  C414     1.0000 0.98200  0.89440  0.94700  Biso   1.000  C
  H338     1.0000 0.00020  0.90710  0.93200  Biso   1.000  H
  C415     1.0000 0.02300  0.82350  0.09600  Biso   1.000  C
  H339     1.0000 0.01780  0.83110  0.13080  Biso   1.000  H
  H340     1.0000 0.06210  0.82590  0.11710  Biso   1.000  H
  N63      1.0000 0.00070  0.78210  0.06700  Biso   1.000  N
  C416     1.0000 0.02200  0.76050  0.12200  Biso   1.000  C
  H341     1.0000 0.04770  0.77000  0.16930  Biso   1.000  H
  C417     1.0000 0.00120  0.71700  0.10500  Biso   1.000  C
  N64      1.0000 0.95950  0.70880  0.03400  Biso   1.000  N
  C418     1.0000 0.93850  0.67150  0.01320  Biso   1.000  C
  C419     1.0000 0.95910  0.64230  0.06300  Biso   1.000  C
  H342     1.0000 0.94480  0.61670  0.04920  Biso   1.000  H
  C420     1.0000 0.00080  0.65040  0.13400  Biso   1.000  C
  H343     1.0000 0.01490  0.63050  0.16850  Biso   1.000  H
  C421     1.0000 0.02180  0.68780  0.15490  Biso   1.000  C
  H344     1.0000 0.05020  0.69340  0.20340  Biso   1.000  H
  C422     1.0000 0.89950  0.66580  0.93900  Biso   1.000  C
  H345     1.0000 0.88680  0.64020  0.92170  Biso   1.000  H
  N65      1.0000 0.88050  0.69410  0.89400  Biso   1.000  N
  C423     1.0000 0.84000  0.69140  0.81700  Biso   1.000  C
  H346     1.0000 0.82540  0.66460  0.80440  Biso   1.000  H
  H347     1.0000 0.80880  0.70890  0.80090  Biso   1.000  H
  C424     1.0000 0.86320  0.70220  0.77660  Biso   1.000  C
  C425     1.0000 0.91170  0.68540  0.79630  Biso   1.000  C
  H348     1.0000 0.92990  0.66630  0.83240  Biso   1.000  H
  C426     1.0000 0.93340  0.69650  0.76300  Biso   1.000  C
  H349     1.0000 0.96650  0.68500  0.77660  Biso   1.000  H
  C427     1.0000 0.90670  0.72440  0.71020  Biso   1.000  C
  C428     1.0000 0.85830  0.74120  0.69050  Biso   1.000  C
  H350     1.0000 0.84010  0.76030  0.65440  Biso   1.000  H
  C429     1.0000 0.83660  0.73010  0.72370  Biso   1.000  C
  H351     1.0000 0.80350  0.74160  0.71020  Biso   1.000  H
  O26      1.0000 0.92950  0.73100  0.67900  Biso   1.000  O
  C430     1.0000 0.09000  0.76160  0.87200  Biso   1.000  C
  H352     1.0000 0.12790  0.75530  0.91570  Biso   1.000  H
  H353     1.0000 0.09210  0.78630  0.85300  Biso   1.000  H
  C431     1.0000 0.05130  0.76550  0.88960  Biso   1.000  C
  C432     1.0000 0.06830  0.74220  0.94670  Biso   1.000  C
  H354     1.0000 0.10170  0.72800  0.97070  Biso   1.000  H
  C433     1.0000 0.03650  0.73970  0.96880  Biso   1.000  C
  H355     1.0000 0.04820  0.72380  0.00780  Biso   1.000  H
  N66      1.0000 0.98770  0.76060  0.93370  Biso   1.000  N
  C434     1.0000 0.97070  0.78390  0.87660  Biso   1.000  C
  C435     1.0000 0.00250  0.78640  0.85460  Biso   1.000  C
  H356     1.0000 0.99080  0.80230  0.81550  Biso   1.000  H
  C436     1.0000 0.92540  0.80850  0.83750  Biso   1.000  C
  N67      1.0000 0.89380  0.80140  0.85880  Biso   1.000  N
  C437     1.0000 0.84200  0.81810  0.82260  Biso   1.000  C
  H357     1.0000 0.82040  0.81320  0.83720  Biso   1.000  H
  C438     1.0000 0.82180  0.84200  0.76490  Biso   1.000  C
  H358     1.0000 0.78630  0.85340  0.74010  Biso   1.000  H
  C439     1.0000 0.85340  0.84910  0.74360  Biso   1.000  C
  C440     1.0000 0.90520  0.83240  0.77980  Biso   1.000  C
  H359     1.0000 0.92680  0.83730  0.76520  Biso   1.000  H
  C441     1.0000 0.83680  0.87700  0.68200  Biso   1.000  C
  H360     1.0000 0.86420  0.89810  0.69990  Biso   1.000  H
  H361     1.0000 0.83330  0.86280  0.64440  Biso   1.000  H
  O27      1.0000 0.77920  0.89370  0.65580  Biso   1.000  O
  C442     1.0000 0.76040  0.91930  0.60520  Biso   1.000  C
  C443     1.0000 0.71000  0.93350  0.58290  Biso   1.000  C
  H362     1.0000 0.69570  0.92560  0.60620  Biso   1.000  H
  C444     1.0000 0.68040  0.95930  0.52700  Biso   1.000  C
  H363     1.0000 0.64600  0.96900  0.51150  Biso   1.000  H
  C445     1.0000 0.70130  0.97090  0.49280  Biso   1.000  C
  C446     1.0000 0.75180  0.95680  0.51500  Biso   1.000  C
  H364     1.0000 0.76600  0.96470  0.49180  Biso   1.000  H
  C447     1.0000 0.78130  0.93100  0.57100  Biso   1.000  C
  H365     1.0000 0.81580  0.92130  0.58640  Biso   1.000  H
  C448     1.0000 0.66100  0.99600  0.41800  Biso   1.000  C
  H366     1.0000 0.62200  0.98950  0.39060  Biso   1.000  H
  H367     1.0000 0.67290  0.99400  0.38870  Biso   1.000  H
  N68      1.0000 0.67450  0.03940  0.45400  Biso   1.000  N
  C449     1.0000 0.65000  0.06560  0.40700  Biso   1.000  C
  H368     1.0000 0.62670  0.05880  0.35890  Biso   1.000  H
  C450     1.0000 0.65700  0.10790  0.42900  Biso   1.000  C
  N69      1.0000 0.68750  0.11630  0.50000  Biso   1.000  N
  C451     1.0000 0.69440  0.15450  0.52260  Biso   1.000  C
  C452     1.0000 0.67090  0.18440  0.47300  Biso   1.000  C
  H369     1.0000 0.67560  0.21050  0.48840  Biso   1.000  H
  C453     1.0000 0.64040  0.17600  0.40200  Biso   1.000  C
  H370     1.0000 0.62430  0.19640  0.36830  Biso   1.000  H
  C454     1.0000 0.63340  0.13770  0.37980  Biso   1.000  C
  H371     1.0000 0.61260  0.13200  0.33100  Biso   1.000  H
  C455     1.0000 0.73070  0.15110  0.60200  Biso   1.000  C
  H372     1.0000 0.73930  0.17470  0.62750  Biso   1.000  H
  N70      1.0000 0.75020  0.12170  0.63800  Biso   1.000  N
  C456     1.0000 0.78700  0.13280  0.71300  Biso   1.000  C
  H373     1.0000 0.78610  0.16120  0.71830  Biso   1.000  H
  H374     1.0000 0.77500  0.12000  0.73830  Biso   1.000  H
  C457     1.0000 0.84850  0.11900  0.74650  Biso   1.000  C
  C458     1.0000 0.87190  0.13580  0.71880  Biso   1.000  C
  H375     1.0000 0.85160  0.15410  0.68160  Biso   1.000  H
  C459     1.0000 0.92510  0.12580  0.74560  Biso   1.000  C
  H376     1.0000 0.94110  0.13720  0.72670  Biso   1.000  H
  C460     1.0000 0.95480  0.09900  0.80010  Biso   1.000  C
  C461     1.0000 0.93140  0.08220  0.82780  Biso   1.000  C
  H377     1.0000 0.95170  0.06380  0.86510  Biso   1.000  H
  C462     1.0000 0.87820  0.09210  0.80100  Biso   1.000  C
  H378     1.0000 0.86220  0.08070  0.81990  Biso   1.000  H
  O28      1.0000 0.01050  0.08980  0.83080  Biso   1.000  O
  Cd15     1.0000 0.27121  0.06196  0.92380  Biso   1.000  Cd
  Cd16     1.0000 0.07574  0.76047  0.54880  Biso   1.000  Cd
  C463     1.0000 0.03690  0.05520  0.87700  Biso   1.000  C
  H379     1.0000 0.03910  0.05690  0.91950  Biso   1.000  H
  H380     1.0000 0.01880  0.03060  0.85170  Biso   1.000  H
  C464     1.0000 0.09340  0.06090  0.89420  Biso   1.000  C
  C465     1.0000 0.13690  0.08390  0.94690  Biso   1.000  C
  H381     1.0000 0.13280  0.09960  0.97550  Biso   1.000  H
  C466     1.0000 0.18650  0.08380  0.95790  Biso   1.000  C
  H382     1.0000 0.21620  0.09950  0.99390  Biso   1.000  H
  N71      1.0000 0.19250  0.06080  0.91610  Biso   1.000  N
  C467     1.0000 0.14900  0.03790  0.86330  Biso   1.000  C
  C468     1.0000 0.09950  0.03790  0.85240  Biso   1.000  C
  H383     1.0000 0.06970  0.02230  0.81630  Biso   1.000  H
  C469     1.0000 0.15450  0.01590  0.81700  Biso   1.000  C
  N72      1.0000 0.20680  0.02030  0.83070  Biso   1.000  N
  C470     1.0000 0.21350  0.00140  0.78300  Biso   1.000  C
  H384     1.0000 0.24620  0.00560  0.78880  Biso   1.000  H
  C471     1.0000 0.17380  0.97760  0.73100  Biso   1.000  C
  H385     1.0000 0.18060  0.96460  0.70250  Biso   1.000  H
  C472     1.0000 0.12800  0.97220  0.71800  Biso   1.000  C
  C473     1.0000 0.11740  0.99010  0.76600  Biso   1.000  C
  H386     1.0000 0.08530  0.98350  0.76060  Biso   1.000  H
  C474     1.0000 0.08460  0.94450  0.66700  Biso   1.000  C
  H387     1.0000 0.05000  0.95810  0.62980  Biso   1.000  H
  H388     1.0000 0.07710  0.92560  0.69100  Biso   1.000  H
  O29      1.0000 0.10860  0.92650  0.63990  Biso   1.000  O
  C475     1.0000 0.07280  0.90290  0.58550  Biso   1.000  C
  C476     1.0000 0.09950  0.88440  0.56360  Biso   1.000  C
  H389     1.0000 0.13700  0.89020  0.58580  Biso   1.000  H
  C477     1.0000 0.07150  0.85750  0.50920  Biso   1.000  C
  H390     1.0000 0.08970  0.84480  0.49420  Biso   1.000  H
  C478     1.0000 0.01670  0.84900  0.47670  Biso   1.000  C
  C479     1.0000 0.99000  0.86750  0.49860  Biso   1.000  C
  H391     1.0000 0.95250  0.86170  0.47640  Biso   1.000  H
  C480     1.0000 0.01800  0.89440  0.55300  Biso   1.000  C
  H392     1.0000 0.99980  0.90710  0.56800  Biso   1.000  H
  C481     1.0000 0.97700  0.82350  0.40400  Biso   1.000  C
  H393     1.0000 0.98220  0.83110  0.36920  Biso   1.000  H
  H394     1.0000 0.93790  0.82590  0.38290  Biso   1.000  H
  N73      1.0000 0.99930  0.78210  0.43300  Biso   1.000  N
  C482     1.0000 0.97800  0.76050  0.37800  Biso   1.000  C
  H395     1.0000 0.95230  0.77000  0.33070  Biso   1.000  H
  C483     1.0000 0.99880  0.71700  0.39500  Biso   1.000  C
  N74      1.0000 0.04050  0.70880  0.46600  Biso   1.000  N
  C484     1.0000 0.06150  0.67150  0.48680  Biso   1.000  C
  C485     1.0000 0.04090  0.64230  0.43700  Biso   1.000  C
  H396     1.0000 0.05520  0.61670  0.45080  Biso   1.000  H
  C486     1.0000 0.99920  0.65040  0.36600  Biso   1.000  C
  H397     1.0000 0.98510  0.63050  0.33150  Biso   1.000  H
  C487     1.0000 0.97820  0.68780  0.34510  Biso   1.000  C
  H398     1.0000 0.94980  0.69340  0.29660  Biso   1.000  H
  C488     1.0000 0.10050  0.66580  0.56100  Biso   1.000  C
  H399     1.0000 0.11320  0.64020  0.57830  Biso   1.000  H
  N75      1.0000 0.11950  0.69410  0.60600  Biso   1.000  N
  C489     1.0000 0.16000  0.69140  0.68300  Biso   1.000  C
  H400     1.0000 0.17460  0.66460  0.69560  Biso   1.000  H
  H401     1.0000 0.19120  0.70890  0.69910  Biso   1.000  H
  C490     1.0000 0.13680  0.70220  0.72340  Biso   1.000  C
  C491     1.0000 0.08830  0.68540  0.70370  Biso   1.000  C
  H402     1.0000 0.07010  0.66630  0.66760  Biso   1.000  H
  C492     1.0000 0.06660  0.69650  0.73700  Biso   1.000  C
  H403     1.0000 0.03350  0.68500  0.72340  Biso   1.000  H
  C493     1.0000 0.09330  0.72440  0.78980  Biso   1.000  C
  C494     1.0000 0.14170  0.74120  0.80950  Biso   1.000  C
  H404     1.0000 0.15990  0.76030  0.84560  Biso   1.000  H
  C495     1.0000 0.16340  0.73010  0.77630  Biso   1.000  C
  H405     1.0000 0.19650  0.74160  0.78980  Biso   1.000  H
  O30      1.0000 0.07050  0.73100  0.82100  Biso   1.000  O
  C496     1.0000 0.91000  0.76160  0.62800  Biso   1.000  C
  H406     1.0000 0.87210  0.75530  0.58430  Biso   1.000  H
  H407     1.0000 0.90790  0.78630  0.64700  Biso   1.000  H
  C497     1.0000 0.94870  0.76550  0.61040  Biso   1.000  C
  C498     1.0000 0.93170  0.74220  0.55330  Biso   1.000  C
  H408     1.0000 0.89830  0.72800  0.52930  Biso   1.000  H
  C499     1.0000 0.96350  0.73970  0.53120  Biso   1.000  C
  H409     1.0000 0.95180  0.72380  0.49220  Biso   1.000  H
  N76      1.0000 0.01230  0.76060  0.56630  Biso   1.000  N
  C500     1.0000 0.02930  0.78390  0.62340  Biso   1.000  C
  C501     1.0000 0.99750  0.78640  0.64540  Biso   1.000  C
  H410     1.0000 0.00920  0.80230  0.68450  Biso   1.000  H
  C502     1.0000 0.07460  0.80850  0.66250  Biso   1.000  C
  N77      1.0000 0.10620  0.80140  0.64120  Biso   1.000  N
  C503     1.0000 0.15800  0.81810  0.67740  Biso   1.000  C
  H411     1.0000 0.17960  0.81320  0.66280  Biso   1.000  H
  C504     1.0000 0.17820  0.84200  0.73510  Biso   1.000  C
  H412     1.0000 0.21370  0.85340  0.75990  Biso   1.000  H
  C505     1.0000 0.14660  0.84910  0.75640  Biso   1.000  C
  C506     1.0000 0.09480  0.83240  0.72020  Biso   1.000  C
  H413     1.0000 0.07320  0.83730  0.73480  Biso   1.000  H
  C507     1.0000 0.16320  0.87700  0.81800  Biso   1.000  C
  H414     1.0000 0.13580  0.89810  0.80010  Biso   1.000  H
  H415     1.0000 0.16670  0.86280  0.85560  Biso   1.000  H
  O31      1.0000 0.22080  0.89370  0.84420  Biso   1.000  O
  C508     1.0000 0.23960  0.91930  0.89480  Biso   1.000  C
  C509     1.0000 0.29000  0.93350  0.91710  Biso   1.000  C
  H416     1.0000 0.30430  0.92560  0.89380  Biso   1.000  H
  C510     1.0000 0.31960  0.95930  0.97300  Biso   1.000  C
  H417     1.0000 0.35400  0.96900  0.98850  Biso   1.000  H
  C511     1.0000 0.29870  0.97090  0.00720  Biso   1.000  C
  C512     1.0000 0.24820  0.95680  0.98500  Biso   1.000  C
  H418     1.0000 0.23400  0.96470  0.00820  Biso   1.000  H
  C513     1.0000 0.21870  0.93100  0.92900  Biso   1.000  C
  H419     1.0000 0.18420  0.92130  0.91360  Biso   1.000  H
  C514     1.0000 0.33900  0.99600  0.08200  Biso   1.000  C
  H420     1.0000 0.37800  0.98950  0.10940  Biso   1.000  H
  H421     1.0000 0.32710  0.99400  0.11130  Biso   1.000  H
  N78      1.0000 0.32550  0.03940  0.04600  Biso   1.000  N
  C515     1.0000 0.35000  0.06560  0.09300  Biso   1.000  C
  H422     1.0000 0.37330  0.05880  0.14110  Biso   1.000  H
  C516     1.0000 0.34300  0.10790  0.07100  Biso   1.000  C
  N79      1.0000 0.31250  0.11630  0.00000  Biso   1.000  N
  C517     1.0000 0.30560  0.15450  0.97740  Biso   1.000  C
  C518     1.0000 0.32910  0.18440  0.02700  Biso   1.000  C
  H423     1.0000 0.32440  0.21050  0.01160  Biso   1.000  H
  C519     1.0000 0.35960  0.17600  0.09800  Biso   1.000  C
  H424     1.0000 0.37570  0.19640  0.13170  Biso   1.000  H
  C520     1.0000 0.36660  0.13770  0.12020  Biso   1.000  C
  H425     1.0000 0.38740  0.13200  0.16900  Biso   1.000  H
  C521     1.0000 0.26930  0.15110  0.89800  Biso   1.000  C
  H426     1.0000 0.26070  0.17470  0.87250  Biso   1.000  H
  N80      1.0000 0.24980  0.12170  0.86200  Biso   1.000  N
  C522     1.0000 0.21300  0.13280  0.78700  Biso   1.000  C
  H427     1.0000 0.21390  0.16120  0.78170  Biso   1.000  H
  H428     1.0000 0.22500  0.12000  0.76170  Biso   1.000  H
  C523     1.0000 0.15150  0.11900  0.75350  Biso   1.000  C
  C524     1.0000 0.12810  0.13580  0.78120  Biso   1.000  C
  H429     1.0000 0.14840  0.15410  0.81840  Biso   1.000  H
  C525     1.0000 0.07490  0.12580  0.75440  Biso   1.000  C
  H430     1.0000 0.05890  0.13720  0.77330  Biso   1.000  H
  C526     1.0000 0.04520  0.09900  0.69990  Biso   1.000  C
  C527     1.0000 0.06860  0.08220  0.67220  Biso   1.000  C
  H431     1.0000 0.04830  0.06380  0.63490  Biso   1.000  H
  C528     1.0000 0.12180  0.09210  0.69900  Biso   1.000  C
  H432     1.0000 0.13780  0.08070  0.68010  Biso   1.000  H
  O32      1.0000 0.98950  0.08980  0.66920  Biso   1.000  O
