data_image0
_cell_length_a       31.96
_cell_length_b       17.64
_cell_length_c       36.606
_cell_angle_alpha    90
_cell_angle_beta     92.087
_cell_angle_gamma    90

_symmetry_space_group_name_H-M    "P 1"
_symmetry_int_tables_number       1

loop_
  _symmetry_equiv_pos_as_xyz
  'x, y, z'

loop_
  _atom_site_label
  _atom_site_occupancy
  _atom_site_fract_x
  _atom_site_fract_y
  _atom_site_fract_z
  _atom_site_thermal_displace_type
  _atom_site_B_iso_or_equiv
  _atom_site_type_symbol
  Pd1      1.0000 0.46924  0.15289  0.02913  Biso   1.000  Pd
  Pd2      1.0000 0.01890  0.14716  0.00064  Biso   1.000  Pd
  Pd3      1.0000 0.27551  0.81012  0.92865  Biso   1.000  Pd
  Pd4      1.0000 0.51131  0.74681  0.20909  Biso   1.000  Pd
  Pd5      1.0000 0.20939  0.18734  0.35311  Biso   1.000  Pd
  Pd6      1.0000 0.05767  0.79534  0.27315  Biso   1.000  Pd
  Br1      1.0000 0.49825  0.27765  0.01689  Biso   1.000  Br
  Br2      1.0000 0.44298  0.02804  0.04140  Biso   1.000  Br
  Br3      1.0000 0.04889  0.04481  0.03697  Biso   1.000  Br
  Br4      1.0000 0.99006  0.24973  0.96496  Biso   1.000  Br
  Br5      1.0000 0.20596  0.85981  0.93130  Biso   1.000  Br
  Br6      1.0000 0.34523  0.75999  0.92485  Biso   1.000  Br
  Br7      1.0000 0.48536  0.77792  0.26809  Biso   1.000  Br
  Br8      1.0000 0.53627  0.71827  0.14900  Biso   1.000  Br
  Br9      1.0000 0.22224  0.30714  0.38363  Biso   1.000  Br
  Br10     1.0000 0.19668  0.06786  0.32412  Biso   1.000  Br
  Br11     1.0000 0.11140  0.77373  0.31986  Biso   1.000  Br
  Br12     1.0000 0.00489  0.82164  0.22648  Biso   1.000  Br
  O1       1.0000 0.30290  0.19000  0.99780  Biso   1.000  O
  O2       1.0000 0.13250  0.35680  0.96490  Biso   1.000  O
  O3       1.0000 0.30040  0.53000  0.94550  Biso   1.000  O
  O4       1.0000 0.39380  0.17670  0.16240  Biso   1.000  O
  O5       1.0000 0.42510  0.52620  0.25430  Biso   1.000  O
  O6       1.0000 0.31640  0.35280  0.29090  Biso   1.000  O
  O7       1.0000 0.06670  0.23810  0.10800  Biso   1.000  O
  O8       1.0000 0.12380  0.21400  0.22990  Biso   1.000  O
  O9       1.0000 0.01520  0.54720  0.18420  Biso   1.000  O
  O10      1.0000 0.21140  0.86530  0.06510  Biso   1.000  O
  O11      1.0000 0.36240  0.85270  0.21360  Biso   1.000  O
  O12      1.0000 0.21620  0.83710  0.24050  Biso   1.000  O
  N1       1.0000 0.43850  0.15260  0.97950  Biso   1.000  N
  N2       1.0000 0.35170  0.28340  0.99210  Biso   1.000  N
  H1       1.0000 0.35550  0.33080  0.98540  Biso   1.000  H
  N3       1.0000 0.05870  0.12560  0.95970  Biso   1.000  N
  N4       1.0000 0.15050  0.24700  0.98960  Biso   1.000  N
  H2       1.0000 0.17120  0.21800  0.99780  Biso   1.000  H
  N5       1.0000 0.25350  0.73390  0.89110  Biso   1.000  N
  N6       1.0000 0.23520  0.57240  0.95220  Biso   1.000  N
  H3       1.0000 0.20910  0.56180  0.95710  Biso   1.000  H
  N7       1.0000 0.50150  0.15590  0.08000  Biso   1.000  N
  N8       1.0000 0.43140  0.26070  0.13230  Biso   1.000  N
  H4       1.0000 0.44160  0.30700  0.13170  Biso   1.000  H
  N9       1.0000 0.53350  0.64280  0.22730  Biso   1.000  N
  N10      1.0000 0.44960  0.51500  0.19810  Biso   1.000  N
  H5       1.0000 0.45240  0.48620  0.17870  Biso   1.000  H
  N11      1.0000 0.27220  0.16640  0.35380  Biso   1.000  N
  N12      1.0000 0.30390  0.24130  0.26690  Biso   1.000  N
  H6       1.0000 0.30830  0.20680  0.25010  Biso   1.000  H
  N13      1.0000 0.97690  0.16650  0.03760  Biso   1.000  N
  N14      1.0000 0.01990  0.32760  0.09280  Biso   1.000  N
  H7       1.0000 0.00750  0.37180  0.09540  Biso   1.000  H
  N15      1.0000 0.14800  0.21210  0.35000  Biso   1.000  N
  N16      1.0000 0.13070  0.31000  0.26420  Biso   1.000  N
  H8       1.0000 0.12590  0.35840  0.26810  Biso   1.000  H
  N17      1.0000 0.03050  0.69620  0.28660  Biso   1.000  N
  N18      1.0000 0.07090  0.56140  0.22130  Biso   1.000  N
  H9       1.0000 0.09530  0.54280  0.22880  Biso   1.000  H
  N19      1.0000 0.29880  0.89160  0.96300  Biso   1.000  N
  N20      1.0000 0.27720  0.82490  0.05640  Biso   1.000  N
  H10      1.0000 0.30090  0.80940  0.06690  Biso   1.000  H
  N21      1.0000 0.49290  0.85040  0.19150  Biso   1.000  N
  N22      1.0000 0.38590  0.80500  0.15940  Biso   1.000  N
  H11      1.0000 0.38170  0.80160  0.13560  Biso   1.000  H
  N23      1.0000 0.08450  0.89570  0.26030  Biso   1.000  N
  N24      1.0000 0.16500  0.83890  0.19840  Biso   1.000  N
  H12      1.0000 0.15820  0.84870  0.17540  Biso   1.000  H
  C1       1.0000 0.45450  0.11240  0.94750  Biso   1.000  C
  H13      1.0000 0.47950  0.08390  0.95150  Biso   1.000  H
  C2       1.0000 0.43860  0.11180  0.91540  Biso   1.000  C
  H14      1.0000 0.45090  0.08240  0.89690  Biso   1.000  H
  C3       1.0000 0.40540  0.15180  0.90800  Biso   1.000  C
  H15      1.0000 0.39280  0.15160  0.88410  Biso   1.000  H
  C4       1.0000 0.38860  0.19400  0.93490  Biso   1.000  C
  H16      1.0000 0.36510  0.22510  0.92890  Biso   1.000  H
  C5       1.0000 0.40430  0.19390  0.97100  Biso   1.000  C
  C6       1.0000 0.38780  0.23750  0.00230  Biso   1.000  C
  H17      1.0000 0.38000  0.20150  0.02170  Biso   1.000  H
  H18      1.0000 0.41020  0.27080  0.01260  Biso   1.000  H
  C7       1.0000 0.31120  0.25490  0.99240  Biso   1.000  C
  C8       1.0000 0.04920  0.07680  0.93270  Biso   1.000  C
  H19      1.0000 0.02330  0.05060  0.93310  Biso   1.000  H
  C9       1.0000 0.07400  0.06340  0.90570  Biso   1.000  C
  H20      1.0000 0.06770  0.02390  0.88880  Biso   1.000  H
  C10      1.0000 0.11040  0.10860  0.90200  Biso   1.000  C
  H21      1.0000 0.12580  0.10610  0.88030  Biso   1.000  H
  C11      1.0000 0.12330  0.15570  0.92980  Biso   1.000  C
  H22      1.0000 0.14960  0.18050  0.93020  Biso   1.000  H
  C12      1.0000 0.09440  0.16510  0.95830  Biso   1.000  C
  C13      1.0000 0.10890  0.21690  0.99030  Biso   1.000  C
  H23      1.0000 0.08910  0.26000  0.99130  Biso   1.000  H
  H24      1.0000 0.10650  0.18790  0.01330  Biso   1.000  H
  C14      1.0000 0.15950  0.31120  0.97820  Biso   1.000  C
  C15      1.0000 0.25230  0.75570  0.85510  Biso   1.000  C
  H25      1.0000 0.26380  0.80290  0.84810  Biso   1.000  H
  C16      1.0000 0.23470  0.70980  0.83010  Biso   1.000  C
  H26      1.0000 0.23040  0.72700  0.80570  Biso   1.000  H
  C17      1.0000 0.22320  0.63970  0.83910  Biso   1.000  C
  H27      1.0000 0.21270  0.60710  0.82020  Biso   1.000  H
  C18      1.0000 0.22610  0.61140  0.87560  Biso   1.000  C
  H28      1.0000 0.21740  0.56150  0.88160  Biso   1.000  H
  C19      1.0000 0.24260  0.66240  0.90220  Biso   1.000  C
  C20      1.0000 0.24570  0.64670  0.94270  Biso   1.000  C
  H29      1.0000 0.27480  0.65710  0.95180  Biso   1.000  H
  H30      1.0000 0.22700  0.68210  0.95530  Biso   1.000  H
  C21      1.0000 0.26290  0.51920  0.95380  Biso   1.000  C
  C22      1.0000 0.27720  0.31370  0.98420  Biso   1.000  C
  C23      1.0000 0.23600  0.28910  0.98390  Biso   1.000  C
  H31      1.0000 0.23050  0.23700  0.98820  Biso   1.000  H
  C24      1.0000 0.20150  0.33970  0.97730  Biso   1.000  C
  C25      1.0000 0.20980  0.41220  0.96820  Biso   1.000  C
  H32      1.0000 0.18720  0.44580  0.96270  Biso   1.000  H
  C26      1.0000 0.25070  0.43900  0.96660  Biso   1.000  C
  C27      1.0000 0.28530  0.39080  0.97540  Biso   1.000  C
  H33      1.0000 0.31320  0.40960  0.97540  Biso   1.000  H
  C28      1.0000 0.94160  0.11990  0.03850  Biso   1.000  C
  H34      1.0000 0.94010  0.07980  0.02110  Biso   1.000  H
  C29      1.0000 0.91060  0.12510  0.06020  Biso   1.000  C
  H35      1.0000 0.88730  0.09170  0.05810  Biso   1.000  H
  C30      1.0000 0.91270  0.18020  0.08600  Biso   1.000  C
  H36      1.0000 0.89080  0.18640  0.10260  Biso   1.000  H
  C31      1.0000 0.94810  0.22840  0.08770  Biso   1.000  C
  H37      1.0000 0.95120  0.26680  0.10580  Biso   1.000  H
  C32      1.0000 0.97750  0.21700  0.06210  Biso   1.000  C
  C33      1.0000 0.01320  0.27190  0.06030  Biso   1.000  C
  H38      1.0000 0.00920  0.30230  0.03770  Biso   1.000  H
  H39      1.0000 0.03930  0.24240  0.05790  Biso   1.000  H
  C34      1.0000 0.04660  0.29760  0.11480  Biso   1.000  C
  C35      1.0000 0.12630  0.18230  0.37720  Biso   1.000  C
  H40      1.0000 0.14160  0.15360  0.39520  Biso   1.000  H
  C36      1.0000 0.08290  0.18960  0.38150  Biso   1.000  C
  H41      1.0000 0.06900  0.17310  0.40260  Biso   1.000  H
  C37      1.0000 0.06280  0.22300  0.35200  Biso   1.000  C
  H42      1.0000 0.03340  0.23010  0.35200  Biso   1.000  H
  C38      1.0000 0.08490  0.24690  0.32200  Biso   1.000  C
  H43      1.0000 0.06950  0.26570  0.30120  Biso   1.000  H
  C39      1.0000 0.12890  0.24440  0.32070  Biso   1.000  C
  C40      1.0000 0.15510  0.27210  0.29370  Biso   1.000  C
  H44      1.0000 0.17100  0.22940  0.28340  Biso   1.000  H
  H45      1.0000 0.17540  0.30830  0.30490  Biso   1.000  H
  C41      1.0000 0.11520  0.28430  0.23360  Biso   1.000  C
  C42      1.0000 0.01140  0.69660  0.31520  Biso   1.000  C
  H46      1.0000 0.01050  0.74370  0.32780  Biso   1.000  H
  C43      1.0000 0.99070  0.63550  0.33160  Biso   1.000  C
  H47      1.0000 0.97630  0.64030  0.35380  Biso   1.000  H
  C44      1.0000 0.99300  0.56770  0.31250  Biso   1.000  C
  H48      1.0000 0.97780  0.52480  0.32050  Biso   1.000  H
  C45      1.0000 0.01610  0.56180  0.28340  Biso   1.000  C
  H49      1.0000 0.02030  0.51430  0.27180  Biso   1.000  H
  C46      1.0000 0.03430  0.62900  0.27010  Biso   1.000  C
  C47      1.0000 0.05910  0.63770  0.23540  Biso   1.000  C
  H50      1.0000 0.04180  0.66480  0.21650  Biso   1.000  H
  H51      1.0000 0.08460  0.66800  0.24070  Biso   1.000  H
  C48      1.0000 0.04730  0.51870  0.19810  Biso   1.000  C
  C49      1.0000 0.06160  0.33760  0.15130  Biso   1.000  C
  C50      1.0000 0.08510  0.29660  0.17530  Biso   1.000  C
  H52      1.0000 0.09380  0.24640  0.16990  Biso   1.000  H
  C51      1.0000 0.09570  0.33000  0.20710  Biso   1.000  C
  C52      1.0000 0.08320  0.40010  0.21570  Biso   1.000  C
  H53      1.0000 0.08990  0.42000  0.23930  Biso   1.000  H
  C53      1.0000 0.06150  0.44210  0.19140  Biso   1.000  C
  C54      1.0000 0.04910  0.40930  0.15750  Biso   1.000  C
  H54      1.0000 0.03260  0.43660  0.13980  Biso   1.000  H
  C55      1.0000 0.53940  0.12310  0.07950  Biso   1.000  C
  H55      1.0000 0.54900  0.10040  0.05780  Biso   1.000  H
  C56      1.0000 0.56290  0.12320  0.10990  Biso   1.000  C
  H56      1.0000 0.59020  0.10160  0.11040  Biso   1.000  H
  C57      1.0000 0.54720  0.15510  0.14080  Biso   1.000  C
  H57      1.0000 0.56400  0.15640  0.16280  Biso   1.000  H
  C58      1.0000 0.50660  0.18580  0.14040  Biso   1.000  C
  H58      1.0000 0.49510  0.20790  0.16140  Biso   1.000  H
  C59      1.0000 0.48590  0.18180  0.10910  Biso   1.000  C
  C60      1.0000 0.44210  0.21300  0.10240  Biso   1.000  C
  H59      1.0000 0.44090  0.24250  0.07940  Biso   1.000  H
  H60      1.0000 0.42190  0.17070  0.09990  Biso   1.000  H
  C61      1.0000 0.40700  0.24420  0.16230  Biso   1.000  C
  C62      1.0000 0.57360  0.63900  0.24490  Biso   1.000  C
  H61      1.0000 0.58810  0.68450  0.25120  Biso   1.000  H
  C63      1.0000 0.59200  0.56960  0.25310  Biso   1.000  C
  H62      1.0000 0.62000  0.56890  0.26260  Biso   1.000  H
  C64      1.0000 0.57110  0.50060  0.24800  Biso   1.000  C
  H63      1.0000 0.58170  0.45390  0.25740  Biso   1.000  H
  C65      1.0000 0.53370  0.50630  0.22830  Biso   1.000  C
  H64      1.0000 0.52110  0.46140  0.21870  Biso   1.000  H
  C66      1.0000 0.51270  0.57830  0.22160  Biso   1.000  C
  C67      1.0000 0.46990  0.59020  0.20050  Biso   1.000  C
  H65      1.0000 0.45220  0.62620  0.21380  Biso   1.000  H
  H66      1.0000 0.47430  0.61070  0.17580  Biso   1.000  H
  C68      1.0000 0.42710  0.49150  0.22590  Biso   1.000  C
  C69      1.0000 0.28740  0.12470  0.38140  Biso   1.000  C
  H67      1.0000 0.26880  0.10310  0.39820  Biso   1.000  H
  C70      1.0000 0.33010  0.11230  0.38590  Biso   1.000  C
  H68      1.0000 0.34160  0.08450  0.40610  Biso   1.000  H
  C71      1.0000 0.35510  0.14250  0.35940  Biso   1.000  C
  H69      1.0000 0.38460  0.13740  0.36250  Biso   1.000  H
  C72      1.0000 0.34060  0.17680  0.33120  Biso   1.000  C
  H70      1.0000 0.35770  0.19240  0.31180  Biso   1.000  H
  C73      1.0000 0.29870  0.18930  0.33090  Biso   1.000  C
  C74      1.0000 0.27670  0.23110  0.29920  Biso   1.000  C
  H71      1.0000 0.25130  0.20240  0.29130  Biso   1.000  H
  H72      1.0000 0.26770  0.28150  0.30780  Biso   1.000  H
  C75      1.0000 0.31770  0.30100  0.26740  Biso   1.000  C
  C76      1.0000 0.39190  0.29710  0.19090  Biso   1.000  C
  C77      1.0000 0.41640  0.37020  0.19440  Biso   1.000  C
  H73      1.0000 0.43930  0.38110  0.17950  Biso   1.000  H
  C78      1.0000 0.40310  0.42000  0.22060  Biso   1.000  C
  C79      1.0000 0.37420  0.39470  0.24340  Biso   1.000  C
  H74      1.0000 0.36890  0.42690  0.26350  Biso   1.000  H
  C80      1.0000 0.35100  0.32780  0.24170  Biso   1.000  C
  C81      1.0000 0.36050  0.27910  0.21560  Biso   1.000  C
  H75      1.0000 0.34600  0.23210  0.21340  Biso   1.000  H
  C82      1.0000 0.32080  0.94070  0.94400  Biso   1.000  C
  H76      1.0000 0.32610  0.93260  0.91900  Biso   1.000  H
  C83      1.0000 0.33450  0.00000  0.96130  Biso   1.000  C
  H77      1.0000 0.34680  0.03980  0.94780  Biso   1.000  H
  C84      1.0000 0.33210  0.00770  0.99890  Biso   1.000  C
  H78      1.0000 0.34530  0.04980  0.01080  Biso   1.000  H
  C85      1.0000 0.31090  0.95510  0.01930  Biso   1.000  C
  H79      1.0000 0.30780  0.95990  0.04490  Biso   1.000  H
  C86      1.0000 0.29510  0.89720  0.99990  Biso   1.000  C
  C87      1.0000 0.27210  0.83000  0.01690  Biso   1.000  C
  H80      1.0000 0.24190  0.83410  0.01030  Biso   1.000  H
  H81      1.0000 0.28250  0.78240  0.00600  Biso   1.000  H
  C88      1.0000 0.24400  0.84510  0.07670  Biso   1.000  C
  C89      1.0000 0.52160  0.90790  0.19100  Biso   1.000  C
  H82      1.0000 0.54950  0.89780  0.19940  Biso   1.000  H
  C90      1.0000 0.51160  0.98190  0.17850  Biso   1.000  C
  H83      1.0000 0.53020  0.02360  0.18140  Biso   1.000  H
  C91      1.0000 0.47240  0.98790  0.16190  Biso   1.000  C
  H84      1.0000 0.46450  0.03450  0.15050  Biso   1.000  H
  C92      1.0000 0.44280  0.92540  0.16100  Biso   1.000  C
  H85      1.0000 0.41560  0.93350  0.15030  Biso   1.000  H
  C93      1.0000 0.45270  0.85330  0.17540  Biso   1.000  C
  C94      1.0000 0.42390  0.78420  0.17680  Biso   1.000  C
  H86      1.0000 0.43650  0.74070  0.16400  Biso   1.000  H
  H87      1.0000 0.41950  0.76950  0.20250  Biso   1.000  H
  C95      1.0000 0.35760  0.82920  0.18030  Biso   1.000  C
  C96      1.0000 0.06720  0.95750  0.27600  Biso   1.000  C
  H88      1.0000 0.04440  0.95390  0.29180  Biso   1.000  H
  C97      1.0000 0.08620  0.02950  0.26680  Biso   1.000  C
  H89      1.0000 0.07470  0.07370  0.27730  Biso   1.000  H
  C98      1.0000 0.11780  0.03910  0.24520  Biso   1.000  C
  H90      1.0000 0.12960  0.08760  0.24090  Biso   1.000  H
  C99      1.0000 0.13310  0.97370  0.22900  Biso   1.000  C
  H91      1.0000 0.15460  0.97750  0.21190  Biso   1.000  H
  C100     1.0000 0.11700  0.90210  0.23770  Biso   1.000  C
  C101     1.0000 0.13350  0.82770  0.22300  Biso   1.000  C
  H92      1.0000 0.14460  0.79650  0.24370  Biso   1.000  H
  H93      1.0000 0.11020  0.79950  0.21080  Biso   1.000  H
  C102     1.0000 0.20220  0.83520  0.20820  Biso   1.000  C
  C103     1.0000 0.26030  0.84160  0.11710  Biso   1.000  C
  C104     1.0000 0.30120  0.83750  0.12980  Biso   1.000  C
  H94      1.0000 0.32310  0.83610  0.11300  Biso   1.000  H
  C105     1.0000 0.31070  0.83520  0.16820  Biso   1.000  C
  C106     1.0000 0.27730  0.83670  0.19210  Biso   1.000  C
  H95      1.0000 0.28350  0.83620  0.21770  Biso   1.000  H
  C107     1.0000 0.23580  0.83880  0.18000  Biso   1.000  C
  C108     1.0000 0.22720  0.84160  0.14240  Biso   1.000  C
  H96      1.0000 0.19890  0.84350  0.13340  Biso   1.000  H
  Pd7      1.0000 0.53076  0.65289  0.47087  Biso   1.000  Pd
  Pd8      1.0000 0.98110  0.64716  0.49936  Biso   1.000  Pd
  Pd9      1.0000 0.72449  0.31012  0.57135  Biso   1.000  Pd
  Pd10     1.0000 0.48869  0.24681  0.29091  Biso   1.000  Pd
  Pd11     1.0000 0.79061  0.68734  0.14689  Biso   1.000  Pd
  Pd12     1.0000 0.94233  0.29534  0.22685  Biso   1.000  Pd
  Br13     1.0000 0.50175  0.77765  0.48311  Biso   1.000  Br
  Br14     1.0000 0.55702  0.52804  0.45860  Biso   1.000  Br
  Br15     1.0000 0.95111  0.54481  0.46303  Biso   1.000  Br
  Br16     1.0000 0.00994  0.74973  0.53504  Biso   1.000  Br
  Br17     1.0000 0.79404  0.35981  0.56870  Biso   1.000  Br
  Br18     1.0000 0.65477  0.25999  0.57515  Biso   1.000  Br
  Br19     1.0000 0.51464  0.27792  0.23191  Biso   1.000  Br
  Br20     1.0000 0.46373  0.21827  0.35100  Biso   1.000  Br
  Br21     1.0000 0.77776  0.80714  0.11637  Biso   1.000  Br
  Br22     1.0000 0.80332  0.56786  0.17588  Biso   1.000  Br
  Br23     1.0000 0.88860  0.27373  0.18014  Biso   1.000  Br
  Br24     1.0000 0.99511  0.32164  0.27352  Biso   1.000  Br
  O13      1.0000 0.69710  0.69000  0.50220  Biso   1.000  O
  O14      1.0000 0.86750  0.85680  0.53510  Biso   1.000  O
  O15      1.0000 0.69960  0.03000  0.55450  Biso   1.000  O
  O16      1.0000 0.60620  0.67670  0.33760  Biso   1.000  O
  O17      1.0000 0.57490  0.02620  0.24570  Biso   1.000  O
  O18      1.0000 0.68360  0.85280  0.20910  Biso   1.000  O
  O19      1.0000 0.93330  0.73810  0.39200  Biso   1.000  O
  O20      1.0000 0.87620  0.71400  0.27010  Biso   1.000  O
  O21      1.0000 0.98480  0.04720  0.31580  Biso   1.000  O
  O22      1.0000 0.78860  0.36530  0.43490  Biso   1.000  O
  O23      1.0000 0.63760  0.35270  0.28640  Biso   1.000  O
  O24      1.0000 0.78380  0.33710  0.25950  Biso   1.000  O
  N25      1.0000 0.56150  0.65260  0.52050  Biso   1.000  N
  N26      1.0000 0.64830  0.78340  0.50790  Biso   1.000  N
  H97      1.0000 0.64450  0.83080  0.51460  Biso   1.000  H
  N27      1.0000 0.94130  0.62560  0.54030  Biso   1.000  N
  N28      1.0000 0.84950  0.74700  0.51040  Biso   1.000  N
  H98      1.0000 0.82880  0.71800  0.50220  Biso   1.000  H
  N29      1.0000 0.74650  0.23390  0.60890  Biso   1.000  N
  N30      1.0000 0.76480  0.07240  0.54780  Biso   1.000  N
  H99      1.0000 0.79090  0.06180  0.54290  Biso   1.000  H
  N31      1.0000 0.49850  0.65590  0.42000  Biso   1.000  N
  N32      1.0000 0.56860  0.76070  0.36770  Biso   1.000  N
  H100     1.0000 0.55840  0.80700  0.36830  Biso   1.000  H
  N33      1.0000 0.46650  0.14280  0.27270  Biso   1.000  N
  N34      1.0000 0.55040  0.01500  0.30190  Biso   1.000  N
  H101     1.0000 0.54760  0.98620  0.32130  Biso   1.000  H
  N35      1.0000 0.72780  0.66640  0.14620  Biso   1.000  N
  N36      1.0000 0.69610  0.74130  0.23310  Biso   1.000  N
  H102     1.0000 0.69170  0.70680  0.24990  Biso   1.000  H
  N37      1.0000 0.02310  0.66650  0.46240  Biso   1.000  N
  N38      1.0000 0.98010  0.82760  0.40720  Biso   1.000  N
  H103     1.0000 0.99250  0.87180  0.40460  Biso   1.000  H
  N39      1.0000 0.85200  0.71210  0.15000  Biso   1.000  N
  N40      1.0000 0.86930  0.81000  0.23580  Biso   1.000  N
  H104     1.0000 0.87410  0.85840  0.23190  Biso   1.000  H
  N41      1.0000 0.96950  0.19620  0.21340  Biso   1.000  N
  N42      1.0000 0.92910  0.06140  0.27870  Biso   1.000  N
  H105     1.0000 0.90470  0.04280  0.27120  Biso   1.000  H
  N43      1.0000 0.70120  0.39160  0.53700  Biso   1.000  N
  N44      1.0000 0.72280  0.32490  0.44360  Biso   1.000  N
  H106     1.0000 0.69910  0.30940  0.43310  Biso   1.000  H
  N45      1.0000 0.50710  0.35040  0.30850  Biso   1.000  N
  N46      1.0000 0.61410  0.30500  0.34060  Biso   1.000  N
  H107     1.0000 0.61830  0.30160  0.36440  Biso   1.000  H
  N47      1.0000 0.91550  0.39570  0.23970  Biso   1.000  N
  N48      1.0000 0.83500  0.33890  0.30160  Biso   1.000  N
  H108     1.0000 0.84180  0.34870  0.32460  Biso   1.000  H
  C109     1.0000 0.54550  0.61240  0.55250  Biso   1.000  C
  H109     1.0000 0.52050  0.58390  0.54850  Biso   1.000  H
  C110     1.0000 0.56140  0.61180  0.58460  Biso   1.000  C
  H110     1.0000 0.54910  0.58240  0.60310  Biso   1.000  H
  C111     1.0000 0.59460  0.65180  0.59200  Biso   1.000  C
  H111     1.0000 0.60720  0.65160  0.61590  Biso   1.000  H
  C112     1.0000 0.61140  0.69400  0.56510  Biso   1.000  C
  H112     1.0000 0.63490  0.72510  0.57110  Biso   1.000  H
  C113     1.0000 0.59570  0.69390  0.52900  Biso   1.000  C
  C114     1.0000 0.61220  0.73750  0.49770  Biso   1.000  C
  H113     1.0000 0.62000  0.70150  0.47830  Biso   1.000  H
  H114     1.0000 0.58980  0.77080  0.48740  Biso   1.000  H
  C115     1.0000 0.68880  0.75490  0.50760  Biso   1.000  C
  C116     1.0000 0.95080  0.57680  0.56730  Biso   1.000  C
  H115     1.0000 0.97670  0.55060  0.56690  Biso   1.000  H
  C117     1.0000 0.92600  0.56340  0.59430  Biso   1.000  C
  H116     1.0000 0.93230  0.52390  0.61120  Biso   1.000  H
  C118     1.0000 0.88960  0.60860  0.59800  Biso   1.000  C
  H117     1.0000 0.87420  0.60610  0.61970  Biso   1.000  H
  C119     1.0000 0.87670  0.65570  0.57020  Biso   1.000  C
  H118     1.0000 0.85040  0.68050  0.56980  Biso   1.000  H
  C120     1.0000 0.90560  0.66510  0.54170  Biso   1.000  C
  C121     1.0000 0.89110  0.71690  0.50970  Biso   1.000  C
  H119     1.0000 0.91090  0.76000  0.50870  Biso   1.000  H
  H120     1.0000 0.89350  0.68790  0.48670  Biso   1.000  H
  C122     1.0000 0.84050  0.81120  0.52180  Biso   1.000  C
  C123     1.0000 0.74770  0.25570  0.64490  Biso   1.000  C
  H121     1.0000 0.73620  0.30290  0.65190  Biso   1.000  H
  C124     1.0000 0.76530  0.20980  0.66990  Biso   1.000  C
  H122     1.0000 0.76960  0.22700  0.69430  Biso   1.000  H
  C125     1.0000 0.77680  0.13970  0.66090  Biso   1.000  C
  H123     1.0000 0.78730  0.10710  0.67980  Biso   1.000  H
  C126     1.0000 0.77390  0.11140  0.62440  Biso   1.000  C
  H124     1.0000 0.78260  0.06150  0.61840  Biso   1.000  H
  C127     1.0000 0.75740  0.16240  0.59780  Biso   1.000  C
  C128     1.0000 0.75430  0.14670  0.55730  Biso   1.000  C
  H125     1.0000 0.72520  0.15710  0.54820  Biso   1.000  H
  H126     1.0000 0.77300  0.18210  0.54470  Biso   1.000  H
  C129     1.0000 0.73710  0.01920  0.54620  Biso   1.000  C
  C130     1.0000 0.72280  0.81370  0.51580  Biso   1.000  C
  C131     1.0000 0.76400  0.78910  0.51610  Biso   1.000  C
  H127     1.0000 0.76950  0.73700  0.51180  Biso   1.000  H
  C132     1.0000 0.79850  0.83970  0.52270  Biso   1.000  C
  C133     1.0000 0.79020  0.91220  0.53180  Biso   1.000  C
  H128     1.0000 0.81280  0.94580  0.53730  Biso   1.000  H
  C134     1.0000 0.74930  0.93900  0.53340  Biso   1.000  C
  C135     1.0000 0.71470  0.89080  0.52460  Biso   1.000  C
  H129     1.0000 0.68680  0.90960  0.52460  Biso   1.000  H
  C136     1.0000 0.05840  0.61990  0.46150  Biso   1.000  C
  H130     1.0000 0.05990  0.57980  0.47890  Biso   1.000  H
  C137     1.0000 0.08940  0.62510  0.43980  Biso   1.000  C
  H131     1.0000 0.11270  0.59170  0.44190  Biso   1.000  H
  C138     1.0000 0.08730  0.68020  0.41400  Biso   1.000  C
  H132     1.0000 0.10920  0.68640  0.39740  Biso   1.000  H
  C139     1.0000 0.05190  0.72840  0.41230  Biso   1.000  C
  H133     1.0000 0.04880  0.76680  0.39420  Biso   1.000  H
  C140     1.0000 0.02250  0.71700  0.43790  Biso   1.000  C
  C141     1.0000 0.98680  0.77190  0.43970  Biso   1.000  C
  H134     1.0000 0.99080  0.80230  0.46230  Biso   1.000  H
  H135     1.0000 0.96070  0.74240  0.44210  Biso   1.000  H
  C142     1.0000 0.95340  0.79760  0.38520  Biso   1.000  C
  C143     1.0000 0.87370  0.68230  0.12280  Biso   1.000  C
  H136     1.0000 0.85840  0.65360  0.10480  Biso   1.000  H
  C144     1.0000 0.91710  0.68960  0.11850  Biso   1.000  C
  H137     1.0000 0.93100  0.67310  0.09740  Biso   1.000  H
  C145     1.0000 0.93720  0.72300  0.14800  Biso   1.000  C
  H138     1.0000 0.96660  0.73010  0.14800  Biso   1.000  H
  C146     1.0000 0.91510  0.74690  0.17800  Biso   1.000  C
  H139     1.0000 0.93050  0.76570  0.19880  Biso   1.000  H
  C147     1.0000 0.87110  0.74440  0.17930  Biso   1.000  C
  C148     1.0000 0.84490  0.77210  0.20630  Biso   1.000  C
  H140     1.0000 0.82900  0.72940  0.21660  Biso   1.000  H
  H141     1.0000 0.82460  0.80830  0.19510  Biso   1.000  H
  C149     1.0000 0.88480  0.78430  0.26640  Biso   1.000  C
  C150     1.0000 0.98860  0.19660  0.18480  Biso   1.000  C
  H142     1.0000 0.98950  0.24370  0.17220  Biso   1.000  H
  C151     1.0000 0.00930  0.13550  0.16840  Biso   1.000  C
  H143     1.0000 0.02370  0.14030  0.14620  Biso   1.000  H
  C152     1.0000 0.00700  0.06770  0.18750  Biso   1.000  C
  H144     1.0000 0.02220  0.02480  0.17950  Biso   1.000  H
  C153     1.0000 0.98390  0.06180  0.21660  Biso   1.000  C
  H145     1.0000 0.97970  0.01430  0.22820  Biso   1.000  H
  C154     1.0000 0.96570  0.12900  0.22990  Biso   1.000  C
  C155     1.0000 0.94090  0.13770  0.26460  Biso   1.000  C
  H146     1.0000 0.95820  0.16480  0.28350  Biso   1.000  H
  H147     1.0000 0.91540  0.16800  0.25930  Biso   1.000  H
  C156     1.0000 0.95270  0.01870  0.30190  Biso   1.000  C
  C157     1.0000 0.93840  0.83760  0.34870  Biso   1.000  C
  C158     1.0000 0.91490  0.79660  0.32470  Biso   1.000  C
  H148     1.0000 0.90620  0.74640  0.33010  Biso   1.000  H
  C159     1.0000 0.90430  0.83000  0.29290  Biso   1.000  C
  C160     1.0000 0.91680  0.90010  0.28430  Biso   1.000  C
  H149     1.0000 0.91010  0.92000  0.26070  Biso   1.000  H
  C161     1.0000 0.93850  0.94210  0.30860  Biso   1.000  C
  C162     1.0000 0.95090  0.90930  0.34250  Biso   1.000  C
  H150     1.0000 0.96740  0.93660  0.36020  Biso   1.000  H
  C163     1.0000 0.46060  0.62310  0.42050  Biso   1.000  C
  H151     1.0000 0.45100  0.60040  0.44220  Biso   1.000  H
  C164     1.0000 0.43710  0.62320  0.39010  Biso   1.000  C
  H152     1.0000 0.40980  0.60160  0.38960  Biso   1.000  H
  C165     1.0000 0.45280  0.65510  0.35920  Biso   1.000  C
  H153     1.0000 0.43600  0.65640  0.33720  Biso   1.000  H
  C166     1.0000 0.49340  0.68580  0.35960  Biso   1.000  C
  H154     1.0000 0.50490  0.70790  0.33860  Biso   1.000  H
  C167     1.0000 0.51410  0.68180  0.39090  Biso   1.000  C
  C168     1.0000 0.55790  0.71300  0.39760  Biso   1.000  C
  H155     1.0000 0.55910  0.74250  0.42060  Biso   1.000  H
  H156     1.0000 0.57810  0.67070  0.40010  Biso   1.000  H
  C169     1.0000 0.59300  0.74420  0.33770  Biso   1.000  C
  C170     1.0000 0.42640  0.13900  0.25510  Biso   1.000  C
  H157     1.0000 0.41190  0.18450  0.24880  Biso   1.000  H
  C171     1.0000 0.40800  0.06960  0.24690  Biso   1.000  C
  H158     1.0000 0.38000  0.06890  0.23740  Biso   1.000  H
  C172     1.0000 0.42890  0.00060  0.25200  Biso   1.000  C
  H159     1.0000 0.41830  0.95390  0.24260  Biso   1.000  H
  C173     1.0000 0.46630  0.00630  0.27170  Biso   1.000  C
  H160     1.0000 0.47890  0.96140  0.28130  Biso   1.000  H
  C174     1.0000 0.48730  0.07830  0.27840  Biso   1.000  C
  C175     1.0000 0.53010  0.09020  0.29950  Biso   1.000  C
  H161     1.0000 0.54780  0.12620  0.28620  Biso   1.000  H
  H162     1.0000 0.52570  0.11070  0.32420  Biso   1.000  H
  C176     1.0000 0.57290  0.99150  0.27410  Biso   1.000  C
  C177     1.0000 0.71260  0.62470  0.11860  Biso   1.000  C
  H163     1.0000 0.73120  0.60310  0.10180  Biso   1.000  H
  C178     1.0000 0.66990  0.61230  0.11410  Biso   1.000  C
  H164     1.0000 0.65840  0.58450  0.09390  Biso   1.000  H
  C179     1.0000 0.64490  0.64250  0.14060  Biso   1.000  C
  H165     1.0000 0.61540  0.63740  0.13750  Biso   1.000  H
  C180     1.0000 0.65940  0.67680  0.16880  Biso   1.000  C
  H166     1.0000 0.64230  0.69240  0.18820  Biso   1.000  H
  C181     1.0000 0.70130  0.68930  0.16910  Biso   1.000  C
  C182     1.0000 0.72330  0.73110  0.20080  Biso   1.000  C
  H167     1.0000 0.74870  0.70240  0.20870  Biso   1.000  H
  H168     1.0000 0.73230  0.78150  0.19220  Biso   1.000  H
  C183     1.0000 0.68230  0.80100  0.23260  Biso   1.000  C
  C184     1.0000 0.60810  0.79710  0.30910  Biso   1.000  C
  C185     1.0000 0.58360  0.87020  0.30560  Biso   1.000  C
  H169     1.0000 0.56070  0.88110  0.32050  Biso   1.000  H
  C186     1.0000 0.59690  0.92000  0.27940  Biso   1.000  C
  C187     1.0000 0.62580  0.89470  0.25660  Biso   1.000  C
  H170     1.0000 0.63110  0.92690  0.23650  Biso   1.000  H
  C188     1.0000 0.64900  0.82780  0.25830  Biso   1.000  C
  C189     1.0000 0.63950  0.77910  0.28440  Biso   1.000  C
  H171     1.0000 0.65400  0.73210  0.28660  Biso   1.000  H
  C190     1.0000 0.67920  0.44070  0.55600  Biso   1.000  C
  H172     1.0000 0.67390  0.43260  0.58100  Biso   1.000  H
  C191     1.0000 0.66550  0.50000  0.53870  Biso   1.000  C
  H173     1.0000 0.65320  0.53980  0.55220  Biso   1.000  H
  C192     1.0000 0.66790  0.50770  0.50110  Biso   1.000  C
  H174     1.0000 0.65470  0.54980  0.48920  Biso   1.000  H
  C193     1.0000 0.68910  0.45510  0.48070  Biso   1.000  C
  H175     1.0000 0.69220  0.45990  0.45510  Biso   1.000  H
  C194     1.0000 0.70490  0.39720  0.50010  Biso   1.000  C
  C195     1.0000 0.72790  0.33000  0.48310  Biso   1.000  C
  H176     1.0000 0.75810  0.33410  0.48970  Biso   1.000  H
  H177     1.0000 0.71750  0.28240  0.49400  Biso   1.000  H
  C196     1.0000 0.75600  0.34510  0.42330  Biso   1.000  C
  C197     1.0000 0.47840  0.40790  0.30900  Biso   1.000  C
  H178     1.0000 0.45050  0.39780  0.30060  Biso   1.000  H
  C198     1.0000 0.48840  0.48190  0.32150  Biso   1.000  C
  H179     1.0000 0.46980  0.52360  0.31860  Biso   1.000  H
  C199     1.0000 0.52760  0.48790  0.33810  Biso   1.000  C
  H180     1.0000 0.53550  0.53450  0.34950  Biso   1.000  H
  C200     1.0000 0.55720  0.42540  0.33900  Biso   1.000  C
  H181     1.0000 0.58440  0.43350  0.34970  Biso   1.000  H
  C201     1.0000 0.54730  0.35330  0.32460  Biso   1.000  C
  C202     1.0000 0.57610  0.28420  0.32320  Biso   1.000  C
  H182     1.0000 0.56350  0.24070  0.33600  Biso   1.000  H
  H183     1.0000 0.58050  0.26950  0.29750  Biso   1.000  H
  C203     1.0000 0.64240  0.32920  0.31970  Biso   1.000  C
  C204     1.0000 0.93280  0.45750  0.22400  Biso   1.000  C
  H184     1.0000 0.95560  0.45390  0.20820  Biso   1.000  H
  C205     1.0000 0.91380  0.52950  0.23320  Biso   1.000  C
  H185     1.0000 0.92530  0.57370  0.22270  Biso   1.000  H
  C206     1.0000 0.88220  0.53910  0.25480  Biso   1.000  C
  H186     1.0000 0.87040  0.58760  0.25910  Biso   1.000  H
  C207     1.0000 0.86690  0.47370  0.27100  Biso   1.000  C
  H187     1.0000 0.84540  0.47750  0.28810  Biso   1.000  H
  C208     1.0000 0.88300  0.40210  0.26230  Biso   1.000  C
  C209     1.0000 0.86650  0.32770  0.27700  Biso   1.000  C
  H188     1.0000 0.85540  0.29650  0.25630  Biso   1.000  H
  H189     1.0000 0.88980  0.29950  0.28920  Biso   1.000  H
  C210     1.0000 0.79780  0.33520  0.29180  Biso   1.000  C
  C211     1.0000 0.73970  0.34160  0.38290  Biso   1.000  C
  C212     1.0000 0.69880  0.33750  0.37020  Biso   1.000  C
  H190     1.0000 0.67690  0.33610  0.38700  Biso   1.000  H
  C213     1.0000 0.68930  0.33520  0.33180  Biso   1.000  C
  C214     1.0000 0.72270  0.33670  0.30790  Biso   1.000  C
  H191     1.0000 0.71650  0.33620  0.28230  Biso   1.000  H
  C215     1.0000 0.76420  0.33880  0.32000  Biso   1.000  C
  C216     1.0000 0.77280  0.34160  0.35760  Biso   1.000  C
  H192     1.0000 0.80110  0.34350  0.36660  Biso   1.000  H
  Pd13     1.0000 0.53076  0.84711  0.97087  Biso   1.000  Pd
  Pd14     1.0000 0.98110  0.85284  0.99936  Biso   1.000  Pd
  Pd15     1.0000 0.72449  0.18988  0.07135  Biso   1.000  Pd
  Pd16     1.0000 0.48869  0.25319  0.79091  Biso   1.000  Pd
  Pd17     1.0000 0.79061  0.81266  0.64689  Biso   1.000  Pd
  Pd18     1.0000 0.94233  0.20466  0.72685  Biso   1.000  Pd
  Br25     1.0000 0.50175  0.72235  0.98311  Biso   1.000  Br
  Br26     1.0000 0.55702  0.97196  0.95860  Biso   1.000  Br
  Br27     1.0000 0.95111  0.95519  0.96303  Biso   1.000  Br
  Br28     1.0000 0.00994  0.75027  0.03504  Biso   1.000  Br
  Br29     1.0000 0.79404  0.14019  0.06870  Biso   1.000  Br
  Br30     1.0000 0.65477  0.24001  0.07515  Biso   1.000  Br
  Br31     1.0000 0.51464  0.22208  0.73191  Biso   1.000  Br
  Br32     1.0000 0.46373  0.28173  0.85100  Biso   1.000  Br
  Br33     1.0000 0.77776  0.69286  0.61637  Biso   1.000  Br
  Br34     1.0000 0.80332  0.93214  0.67588  Biso   1.000  Br
  Br35     1.0000 0.88860  0.22627  0.68014  Biso   1.000  Br
  Br36     1.0000 0.99511  0.17836  0.77352  Biso   1.000  Br
  O25      1.0000 0.69710  0.81000  0.00220  Biso   1.000  O
  O26      1.0000 0.86750  0.64320  0.03510  Biso   1.000  O
  O27      1.0000 0.69960  0.47000  0.05450  Biso   1.000  O
  O28      1.0000 0.60620  0.82330  0.83760  Biso   1.000  O
  O29      1.0000 0.57490  0.47380  0.74570  Biso   1.000  O
  O30      1.0000 0.68360  0.64720  0.70910  Biso   1.000  O
  O31      1.0000 0.93330  0.76190  0.89200  Biso   1.000  O
  O32      1.0000 0.87620  0.78600  0.77010  Biso   1.000  O
  O33      1.0000 0.98480  0.45280  0.81580  Biso   1.000  O
  O34      1.0000 0.78860  0.13470  0.93490  Biso   1.000  O
  O35      1.0000 0.63760  0.14730  0.78640  Biso   1.000  O
  O36      1.0000 0.78380  0.16290  0.75950  Biso   1.000  O
  N49      1.0000 0.56150  0.84740  0.02050  Biso   1.000  N
  N50      1.0000 0.64830  0.71660  0.00790  Biso   1.000  N
  H193     1.0000 0.64450  0.66920  0.01460  Biso   1.000  H
  N51      1.0000 0.94130  0.87440  0.04030  Biso   1.000  N
  N52      1.0000 0.84950  0.75300  0.01040  Biso   1.000  N
  H194     1.0000 0.82880  0.78200  0.00220  Biso   1.000  H
  N53      1.0000 0.74650  0.26610  0.10890  Biso   1.000  N
  N54      1.0000 0.76480  0.42760  0.04780  Biso   1.000  N
  H195     1.0000 0.79090  0.43820  0.04290  Biso   1.000  H
  N55      1.0000 0.49850  0.84410  0.92000  Biso   1.000  N
  N56      1.0000 0.56860  0.73930  0.86770  Biso   1.000  N
  H196     1.0000 0.55840  0.69300  0.86830  Biso   1.000  H
  N57      1.0000 0.46650  0.35720  0.77270  Biso   1.000  N
  N58      1.0000 0.55040  0.48500  0.80190  Biso   1.000  N
  H197     1.0000 0.54760  0.51380  0.82130  Biso   1.000  H
  N59      1.0000 0.72780  0.83360  0.64620  Biso   1.000  N
  N60      1.0000 0.69610  0.75870  0.73310  Biso   1.000  N
  H198     1.0000 0.69170  0.79320  0.74990  Biso   1.000  H
  N61      1.0000 0.02310  0.83350  0.96240  Biso   1.000  N
  N62      1.0000 0.98010  0.67240  0.90720  Biso   1.000  N
  H199     1.0000 0.99250  0.62820  0.90460  Biso   1.000  H
  N63      1.0000 0.85200  0.78790  0.65000  Biso   1.000  N
  N64      1.0000 0.86930  0.69000  0.73580  Biso   1.000  N
  H200     1.0000 0.87410  0.64160  0.73190  Biso   1.000  H
  N65      1.0000 0.96950  0.30380  0.71340  Biso   1.000  N
  N66      1.0000 0.92910  0.43860  0.77870  Biso   1.000  N
  H201     1.0000 0.90470  0.45720  0.77120  Biso   1.000  H
  N67      1.0000 0.70120  0.10840  0.03700  Biso   1.000  N
  N68      1.0000 0.72280  0.17510  0.94360  Biso   1.000  N
  H202     1.0000 0.69910  0.19060  0.93310  Biso   1.000  H
  N69      1.0000 0.50710  0.14960  0.80850  Biso   1.000  N
  N70      1.0000 0.61410  0.19500  0.84060  Biso   1.000  N
  H203     1.0000 0.61830  0.19840  0.86440  Biso   1.000  H
  N71      1.0000 0.91550  0.10430  0.73970  Biso   1.000  N
  N72      1.0000 0.83500  0.16110  0.80160  Biso   1.000  N
  H204     1.0000 0.84180  0.15130  0.82460  Biso   1.000  H
  C217     1.0000 0.54550  0.88760  0.05250  Biso   1.000  C
  H205     1.0000 0.52050  0.91610  0.04850  Biso   1.000  H
  C218     1.0000 0.56140  0.88820  0.08460  Biso   1.000  C
  H206     1.0000 0.54910  0.91760  0.10310  Biso   1.000  H
  C219     1.0000 0.59460  0.84820  0.09200  Biso   1.000  C
  H207     1.0000 0.60720  0.84840  0.11590  Biso   1.000  H
  C220     1.0000 0.61140  0.80600  0.06510  Biso   1.000  C
  H208     1.0000 0.63490  0.77490  0.07110  Biso   1.000  H
  C221     1.0000 0.59570  0.80610  0.02900  Biso   1.000  C
  C222     1.0000 0.61220  0.76250  0.99770  Biso   1.000  C
  H209     1.0000 0.62000  0.79850  0.97830  Biso   1.000  H
  H210     1.0000 0.58980  0.72920  0.98740  Biso   1.000  H
  C223     1.0000 0.68880  0.74510  0.00760  Biso   1.000  C
  C224     1.0000 0.95080  0.92320  0.06730  Biso   1.000  C
  H211     1.0000 0.97670  0.94940  0.06690  Biso   1.000  H
  C225     1.0000 0.92600  0.93660  0.09430  Biso   1.000  C
  H212     1.0000 0.93230  0.97610  0.11120  Biso   1.000  H
  C226     1.0000 0.88960  0.89140  0.09800  Biso   1.000  C
  H213     1.0000 0.87420  0.89390  0.11970  Biso   1.000  H
  C227     1.0000 0.87670  0.84430  0.07020  Biso   1.000  C
  H214     1.0000 0.85040  0.81950  0.06980  Biso   1.000  H
  C228     1.0000 0.90560  0.83490  0.04170  Biso   1.000  C
  C229     1.0000 0.89110  0.78310  0.00970  Biso   1.000  C
  H215     1.0000 0.91090  0.74000  0.00870  Biso   1.000  H
  H216     1.0000 0.89350  0.81210  0.98670  Biso   1.000  H
  C230     1.0000 0.84050  0.68880  0.02180  Biso   1.000  C
  C231     1.0000 0.74770  0.24430  0.14490  Biso   1.000  C
  H217     1.0000 0.73620  0.19710  0.15190  Biso   1.000  H
  C232     1.0000 0.76530  0.29020  0.16990  Biso   1.000  C
  H218     1.0000 0.76960  0.27300  0.19430  Biso   1.000  H
  C233     1.0000 0.77680  0.36030  0.16090  Biso   1.000  C
  H219     1.0000 0.78730  0.39290  0.17980  Biso   1.000  H
  C234     1.0000 0.77390  0.38860  0.12440  Biso   1.000  C
  H220     1.0000 0.78260  0.43850  0.11840  Biso   1.000  H
  C235     1.0000 0.75740  0.33760  0.09780  Biso   1.000  C
  C236     1.0000 0.75430  0.35330  0.05730  Biso   1.000  C
  H221     1.0000 0.72520  0.34290  0.04820  Biso   1.000  H
  H222     1.0000 0.77300  0.31790  0.04470  Biso   1.000  H
  C237     1.0000 0.73710  0.48080  0.04620  Biso   1.000  C
  C238     1.0000 0.72280  0.68630  0.01580  Biso   1.000  C
  C239     1.0000 0.76400  0.71090  0.01610  Biso   1.000  C
  H223     1.0000 0.76950  0.76300  0.01180  Biso   1.000  H
  C240     1.0000 0.79850  0.66030  0.02270  Biso   1.000  C
  C241     1.0000 0.79020  0.58780  0.03180  Biso   1.000  C
  H224     1.0000 0.81280  0.55420  0.03730  Biso   1.000  H
  C242     1.0000 0.74930  0.56100  0.03340  Biso   1.000  C
  C243     1.0000 0.71470  0.60920  0.02460  Biso   1.000  C
  H225     1.0000 0.68680  0.59040  0.02460  Biso   1.000  H
  C244     1.0000 0.05840  0.88010  0.96150  Biso   1.000  C
  H226     1.0000 0.05990  0.92020  0.97890  Biso   1.000  H
  C245     1.0000 0.08940  0.87490  0.93980  Biso   1.000  C
  H227     1.0000 0.11270  0.90830  0.94190  Biso   1.000  H
  C246     1.0000 0.08730  0.81980  0.91400  Biso   1.000  C
  H228     1.0000 0.10920  0.81360  0.89740  Biso   1.000  H
  C247     1.0000 0.05190  0.77160  0.91230  Biso   1.000  C
  H229     1.0000 0.04880  0.73320  0.89420  Biso   1.000  H
  C248     1.0000 0.02250  0.78300  0.93790  Biso   1.000  C
  C249     1.0000 0.98680  0.72810  0.93970  Biso   1.000  C
  H230     1.0000 0.99080  0.69770  0.96230  Biso   1.000  H
  H231     1.0000 0.96070  0.75760  0.94210  Biso   1.000  H
  C250     1.0000 0.95340  0.70240  0.88520  Biso   1.000  C
  C251     1.0000 0.87370  0.81770  0.62280  Biso   1.000  C
  H232     1.0000 0.85840  0.84640  0.60480  Biso   1.000  H
  C252     1.0000 0.91710  0.81040  0.61850  Biso   1.000  C
  H233     1.0000 0.93100  0.82690  0.59740  Biso   1.000  H
  C253     1.0000 0.93720  0.77700  0.64800  Biso   1.000  C
  H234     1.0000 0.96660  0.76990  0.64800  Biso   1.000  H
  C254     1.0000 0.91510  0.75310  0.67800  Biso   1.000  C
  H235     1.0000 0.93050  0.73430  0.69880  Biso   1.000  H
  C255     1.0000 0.87110  0.75560  0.67930  Biso   1.000  C
  C256     1.0000 0.84490  0.72790  0.70630  Biso   1.000  C
  H236     1.0000 0.82900  0.77060  0.71660  Biso   1.000  H
  H237     1.0000 0.82460  0.69170  0.69510  Biso   1.000  H
  C257     1.0000 0.88480  0.71570  0.76640  Biso   1.000  C
  C258     1.0000 0.98860  0.30340  0.68480  Biso   1.000  C
  H238     1.0000 0.98950  0.25630  0.67220  Biso   1.000  H
  C259     1.0000 0.00930  0.36450  0.66840  Biso   1.000  C
  H239     1.0000 0.02370  0.35970  0.64620  Biso   1.000  H
  C260     1.0000 0.00700  0.43230  0.68750  Biso   1.000  C
  H240     1.0000 0.02220  0.47520  0.67950  Biso   1.000  H
  C261     1.0000 0.98390  0.43820  0.71660  Biso   1.000  C
  H241     1.0000 0.97970  0.48570  0.72820  Biso   1.000  H
  C262     1.0000 0.96570  0.37100  0.72990  Biso   1.000  C
  C263     1.0000 0.94090  0.36230  0.76460  Biso   1.000  C
  H242     1.0000 0.95820  0.33520  0.78350  Biso   1.000  H
  H243     1.0000 0.91540  0.33200  0.75930  Biso   1.000  H
  C264     1.0000 0.95270  0.48130  0.80190  Biso   1.000  C
  C265     1.0000 0.93840  0.66240  0.84870  Biso   1.000  C
  C266     1.0000 0.91490  0.70340  0.82470  Biso   1.000  C
  H244     1.0000 0.90620  0.75360  0.83010  Biso   1.000  H
  C267     1.0000 0.90430  0.67000  0.79290  Biso   1.000  C
  C268     1.0000 0.91680  0.59990  0.78430  Biso   1.000  C
  H245     1.0000 0.91010  0.58000  0.76070  Biso   1.000  H
  C269     1.0000 0.93850  0.55790  0.80860  Biso   1.000  C
  C270     1.0000 0.95090  0.59070  0.84250  Biso   1.000  C
  H246     1.0000 0.96740  0.56340  0.86020  Biso   1.000  H
  C271     1.0000 0.46060  0.87690  0.92050  Biso   1.000  C
  H247     1.0000 0.45100  0.89960  0.94220  Biso   1.000  H
  C272     1.0000 0.43710  0.87680  0.89010  Biso   1.000  C
  H248     1.0000 0.40980  0.89840  0.88960  Biso   1.000  H
  C273     1.0000 0.45280  0.84490  0.85920  Biso   1.000  C
  H249     1.0000 0.43600  0.84360  0.83720  Biso   1.000  H
  C274     1.0000 0.49340  0.81420  0.85960  Biso   1.000  C
  H250     1.0000 0.50490  0.79210  0.83860  Biso   1.000  H
  C275     1.0000 0.51410  0.81820  0.89090  Biso   1.000  C
  C276     1.0000 0.55790  0.78700  0.89760  Biso   1.000  C
  H251     1.0000 0.55910  0.75750  0.92060  Biso   1.000  H
  H252     1.0000 0.57810  0.82930  0.90010  Biso   1.000  H
  C277     1.0000 0.59300  0.75580  0.83770  Biso   1.000  C
  C278     1.0000 0.42640  0.36100  0.75510  Biso   1.000  C
  H253     1.0000 0.41190  0.31550  0.74880  Biso   1.000  H
  C279     1.0000 0.40800  0.43040  0.74690  Biso   1.000  C
  H254     1.0000 0.38000  0.43110  0.73740  Biso   1.000  H
  C280     1.0000 0.42890  0.49940  0.75200  Biso   1.000  C
  H255     1.0000 0.41830  0.54610  0.74260  Biso   1.000  H
  C281     1.0000 0.46630  0.49370  0.77170  Biso   1.000  C
  H256     1.0000 0.47890  0.53860  0.78130  Biso   1.000  H
  C282     1.0000 0.48730  0.42170  0.77840  Biso   1.000  C
  C283     1.0000 0.53010  0.40980  0.79950  Biso   1.000  C
  H257     1.0000 0.54780  0.37380  0.78620  Biso   1.000  H
  H258     1.0000 0.52570  0.38930  0.82420  Biso   1.000  H
  C284     1.0000 0.57290  0.50850  0.77410  Biso   1.000  C
  C285     1.0000 0.71260  0.87530  0.61860  Biso   1.000  C
  H259     1.0000 0.73120  0.89690  0.60180  Biso   1.000  H
  C286     1.0000 0.66990  0.88770  0.61410  Biso   1.000  C
  H260     1.0000 0.65840  0.91550  0.59390  Biso   1.000  H
  C287     1.0000 0.64490  0.85750  0.64060  Biso   1.000  C
  H261     1.0000 0.61540  0.86260  0.63750  Biso   1.000  H
  C288     1.0000 0.65940  0.82320  0.66880  Biso   1.000  C
  H262     1.0000 0.64230  0.80760  0.68820  Biso   1.000  H
  C289     1.0000 0.70130  0.81070  0.66910  Biso   1.000  C
  C290     1.0000 0.72330  0.76890  0.70080  Biso   1.000  C
  H263     1.0000 0.74870  0.79760  0.70870  Biso   1.000  H
  H264     1.0000 0.73230  0.71850  0.69220  Biso   1.000  H
  C291     1.0000 0.68230  0.69900  0.73260  Biso   1.000  C
  C292     1.0000 0.60810  0.70290  0.80910  Biso   1.000  C
  C293     1.0000 0.58360  0.62980  0.80560  Biso   1.000  C
  H265     1.0000 0.56070  0.61890  0.82050  Biso   1.000  H
  C294     1.0000 0.59690  0.58000  0.77940  Biso   1.000  C
  C295     1.0000 0.62580  0.60530  0.75660  Biso   1.000  C
  H266     1.0000 0.63110  0.57310  0.73650  Biso   1.000  H
  C296     1.0000 0.64900  0.67220  0.75830  Biso   1.000  C
  C297     1.0000 0.63950  0.72090  0.78440  Biso   1.000  C
  H267     1.0000 0.65400  0.76790  0.78660  Biso   1.000  H
  C298     1.0000 0.67920  0.05930  0.05600  Biso   1.000  C
  H268     1.0000 0.67390  0.06740  0.08100  Biso   1.000  H
  C299     1.0000 0.66550  0.00000  0.03870  Biso   1.000  C
  H269     1.0000 0.65320  0.96020  0.05220  Biso   1.000  H
  C300     1.0000 0.66790  0.99230  0.00110  Biso   1.000  C
  H270     1.0000 0.65470  0.95020  0.98920  Biso   1.000  H
  C301     1.0000 0.68910  0.04490  0.98070  Biso   1.000  C
  H271     1.0000 0.69220  0.04010  0.95510  Biso   1.000  H
  C302     1.0000 0.70490  0.10280  0.00010  Biso   1.000  C
  C303     1.0000 0.72790  0.17000  0.98310  Biso   1.000  C
  H272     1.0000 0.75810  0.16590  0.98970  Biso   1.000  H
  H273     1.0000 0.71750  0.21760  0.99400  Biso   1.000  H
  C304     1.0000 0.75600  0.15490  0.92330  Biso   1.000  C
  C305     1.0000 0.47840  0.09210  0.80900  Biso   1.000  C
  H274     1.0000 0.45050  0.10220  0.80060  Biso   1.000  H
  C306     1.0000 0.48840  0.01810  0.82150  Biso   1.000  C
  H275     1.0000 0.46980  0.97640  0.81860  Biso   1.000  H
  C307     1.0000 0.52760  0.01210  0.83810  Biso   1.000  C
  H276     1.0000 0.53550  0.96550  0.84950  Biso   1.000  H
  C308     1.0000 0.55720  0.07460  0.83900  Biso   1.000  C
  H277     1.0000 0.58440  0.06650  0.84970  Biso   1.000  H
  C309     1.0000 0.54730  0.14670  0.82460  Biso   1.000  C
  C310     1.0000 0.57610  0.21580  0.82320  Biso   1.000  C
  H278     1.0000 0.56350  0.25930  0.83600  Biso   1.000  H
  H279     1.0000 0.58050  0.23050  0.79750  Biso   1.000  H
  C311     1.0000 0.64240  0.17080  0.81970  Biso   1.000  C
  C312     1.0000 0.93280  0.04250  0.72400  Biso   1.000  C
  H280     1.0000 0.95560  0.04610  0.70820  Biso   1.000  H
  C313     1.0000 0.91380  0.97050  0.73320  Biso   1.000  C
  H281     1.0000 0.92530  0.92630  0.72270  Biso   1.000  H
  C314     1.0000 0.88220  0.96090  0.75480  Biso   1.000  C
  H282     1.0000 0.87040  0.91240  0.75910  Biso   1.000  H
  C315     1.0000 0.86690  0.02630  0.77100  Biso   1.000  C
  H283     1.0000 0.84540  0.02250  0.78810  Biso   1.000  H
  C316     1.0000 0.88300  0.09790  0.76230  Biso   1.000  C
  C317     1.0000 0.86650  0.17230  0.77700  Biso   1.000  C
  H284     1.0000 0.85540  0.20350  0.75630  Biso   1.000  H
  H285     1.0000 0.88980  0.20050  0.78920  Biso   1.000  H
  C318     1.0000 0.79780  0.16480  0.79180  Biso   1.000  C
  C319     1.0000 0.73970  0.15840  0.88290  Biso   1.000  C
  C320     1.0000 0.69880  0.16250  0.87020  Biso   1.000  C
  H286     1.0000 0.67690  0.16390  0.88700  Biso   1.000  H
  C321     1.0000 0.68930  0.16480  0.83180  Biso   1.000  C
  C322     1.0000 0.72270  0.16330  0.80790  Biso   1.000  C
  H287     1.0000 0.71650  0.16380  0.78230  Biso   1.000  H
  C323     1.0000 0.76420  0.16120  0.82000  Biso   1.000  C
  C324     1.0000 0.77280  0.15840  0.85760  Biso   1.000  C
  H288     1.0000 0.80110  0.15650  0.86660  Biso   1.000  H
  Pd19     1.0000 0.46924  0.34711  0.52913  Biso   1.000  Pd
  Pd20     1.0000 0.01890  0.35284  0.50064  Biso   1.000  Pd
  Pd21     1.0000 0.27551  0.68988  0.42865  Biso   1.000  Pd
  Pd22     1.0000 0.51131  0.75319  0.70909  Biso   1.000  Pd
  Pd23     1.0000 0.20939  0.31266  0.85311  Biso   1.000  Pd
  Pd24     1.0000 0.05767  0.70466  0.77315  Biso   1.000  Pd
  Br37     1.0000 0.49825  0.22235  0.51689  Biso   1.000  Br
  Br38     1.0000 0.44298  0.47196  0.54140  Biso   1.000  Br
  Br39     1.0000 0.04889  0.45519  0.53697  Biso   1.000  Br
  Br40     1.0000 0.99006  0.25027  0.46496  Biso   1.000  Br
  Br41     1.0000 0.20596  0.64019  0.43130  Biso   1.000  Br
  Br42     1.0000 0.34523  0.74001  0.42485  Biso   1.000  Br
  Br43     1.0000 0.48536  0.72208  0.76809  Biso   1.000  Br
  Br44     1.0000 0.53627  0.78173  0.64900  Biso   1.000  Br
  Br45     1.0000 0.22224  0.19286  0.88363  Biso   1.000  Br
  Br46     1.0000 0.19668  0.43214  0.82412  Biso   1.000  Br
  Br47     1.0000 0.11140  0.72627  0.81986  Biso   1.000  Br
  Br48     1.0000 0.00489  0.67836  0.72648  Biso   1.000  Br
  O37      1.0000 0.30290  0.31000  0.49780  Biso   1.000  O
  O38      1.0000 0.13250  0.14320  0.46490  Biso   1.000  O
  O39      1.0000 0.30040  0.97000  0.44550  Biso   1.000  O
  O40      1.0000 0.39380  0.32330  0.66240  Biso   1.000  O
  O41      1.0000 0.42510  0.97380  0.75430  Biso   1.000  O
  O42      1.0000 0.31640  0.14720  0.79090  Biso   1.000  O
  O43      1.0000 0.06670  0.26190  0.60800  Biso   1.000  O
  O44      1.0000 0.12380  0.28600  0.72990  Biso   1.000  O
  O45      1.0000 0.01520  0.95280  0.68420  Biso   1.000  O
  O46      1.0000 0.21140  0.63470  0.56510  Biso   1.000  O
  O47      1.0000 0.36240  0.64730  0.71360  Biso   1.000  O
  O48      1.0000 0.21620  0.66290  0.74050  Biso   1.000  O
  N73      1.0000 0.43850  0.34740  0.47950  Biso   1.000  N
  N74      1.0000 0.35170  0.21660  0.49210  Biso   1.000  N
  H289     1.0000 0.35550  0.16920  0.48540  Biso   1.000  H
  N75      1.0000 0.05870  0.37440  0.45970  Biso   1.000  N
  N76      1.0000 0.15050  0.25300  0.48960  Biso   1.000  N
  H290     1.0000 0.17120  0.28200  0.49780  Biso   1.000  H
  N77      1.0000 0.25350  0.76610  0.39110  Biso   1.000  N
  N78      1.0000 0.23520  0.92760  0.45220  Biso   1.000  N
  H291     1.0000 0.20910  0.93820  0.45710  Biso   1.000  H
  N79      1.0000 0.50150  0.34410  0.58000  Biso   1.000  N
  N80      1.0000 0.43140  0.23930  0.63230  Biso   1.000  N
  H292     1.0000 0.44160  0.19300  0.63170  Biso   1.000  H
  N81      1.0000 0.53350  0.85720  0.72730  Biso   1.000  N
  N82      1.0000 0.44960  0.98500  0.69810  Biso   1.000  N
  H293     1.0000 0.45240  0.01380  0.67870  Biso   1.000  H
  N83      1.0000 0.27220  0.33360  0.85380  Biso   1.000  N
  N84      1.0000 0.30390  0.25870  0.76690  Biso   1.000  N
  H294     1.0000 0.30830  0.29320  0.75010  Biso   1.000  H
  N85      1.0000 0.97690  0.33350  0.53760  Biso   1.000  N
  N86      1.0000 0.01990  0.17240  0.59280  Biso   1.000  N
  H295     1.0000 0.00750  0.12820  0.59540  Biso   1.000  H
  N87      1.0000 0.14800  0.28790  0.85000  Biso   1.000  N
  N88      1.0000 0.13070  0.19000  0.76420  Biso   1.000  N
  H296     1.0000 0.12590  0.14160  0.76810  Biso   1.000  H
  N89      1.0000 0.03050  0.80380  0.78660  Biso   1.000  N
  N90      1.0000 0.07090  0.93860  0.72130  Biso   1.000  N
  H297     1.0000 0.09530  0.95720  0.72880  Biso   1.000  H
  N91      1.0000 0.29880  0.60840  0.46300  Biso   1.000  N
  N92      1.0000 0.27720  0.67510  0.55640  Biso   1.000  N
  H298     1.0000 0.30090  0.69060  0.56690  Biso   1.000  H
  N93      1.0000 0.49290  0.64960  0.69150  Biso   1.000  N
  N94      1.0000 0.38590  0.69500  0.65940  Biso   1.000  N
  H299     1.0000 0.38170  0.69840  0.63560  Biso   1.000  H
  N95      1.0000 0.08450  0.60430  0.76030  Biso   1.000  N
  N96      1.0000 0.16500  0.66110  0.69840  Biso   1.000  N
  H300     1.0000 0.15820  0.65130  0.67540  Biso   1.000  H
  C325     1.0000 0.45450  0.38760  0.44750  Biso   1.000  C
  H301     1.0000 0.47950  0.41610  0.45150  Biso   1.000  H
  C326     1.0000 0.43860  0.38820  0.41540  Biso   1.000  C
  H302     1.0000 0.45090  0.41760  0.39690  Biso   1.000  H
  C327     1.0000 0.40540  0.34820  0.40800  Biso   1.000  C
  H303     1.0000 0.39280  0.34840  0.38410  Biso   1.000  H
  C328     1.0000 0.38860  0.30600  0.43490  Biso   1.000  C
  H304     1.0000 0.36510  0.27490  0.42890  Biso   1.000  H
  C329     1.0000 0.40430  0.30610  0.47100  Biso   1.000  C
  C330     1.0000 0.38780  0.26250  0.50230  Biso   1.000  C
  H305     1.0000 0.38000  0.29850  0.52170  Biso   1.000  H
  H306     1.0000 0.41020  0.22920  0.51260  Biso   1.000  H
  C331     1.0000 0.31120  0.24510  0.49240  Biso   1.000  C
  C332     1.0000 0.04920  0.42320  0.43270  Biso   1.000  C
  H307     1.0000 0.02330  0.44940  0.43310  Biso   1.000  H
  C333     1.0000 0.07400  0.43660  0.40570  Biso   1.000  C
  H308     1.0000 0.06770  0.47610  0.38880  Biso   1.000  H
  C334     1.0000 0.11040  0.39140  0.40200  Biso   1.000  C
  H309     1.0000 0.12580  0.39390  0.38030  Biso   1.000  H
  C335     1.0000 0.12330  0.34430  0.42980  Biso   1.000  C
  H310     1.0000 0.14960  0.31950  0.43020  Biso   1.000  H
  C336     1.0000 0.09440  0.33490  0.45830  Biso   1.000  C
  C337     1.0000 0.10890  0.28310  0.49030  Biso   1.000  C
  H311     1.0000 0.08910  0.24000  0.49130  Biso   1.000  H
  H312     1.0000 0.10650  0.31210  0.51330  Biso   1.000  H
  C338     1.0000 0.15950  0.18880  0.47820  Biso   1.000  C
  C339     1.0000 0.25230  0.74430  0.35510  Biso   1.000  C
  H313     1.0000 0.26380  0.69710  0.34810  Biso   1.000  H
  C340     1.0000 0.23470  0.79020  0.33010  Biso   1.000  C
  H314     1.0000 0.23040  0.77300  0.30570  Biso   1.000  H
  C341     1.0000 0.22320  0.86030  0.33910  Biso   1.000  C
  H315     1.0000 0.21270  0.89290  0.32020  Biso   1.000  H
  C342     1.0000 0.22610  0.88860  0.37560  Biso   1.000  C
  H316     1.0000 0.21740  0.93850  0.38160  Biso   1.000  H
  C343     1.0000 0.24260  0.83760  0.40220  Biso   1.000  C
  C344     1.0000 0.24570  0.85330  0.44270  Biso   1.000  C
  H317     1.0000 0.27480  0.84290  0.45180  Biso   1.000  H
  H318     1.0000 0.22700  0.81790  0.45530  Biso   1.000  H
  C345     1.0000 0.26290  0.98080  0.45380  Biso   1.000  C
  C346     1.0000 0.27720  0.18630  0.48420  Biso   1.000  C
  C347     1.0000 0.23600  0.21090  0.48390  Biso   1.000  C
  H319     1.0000 0.23050  0.26300  0.48820  Biso   1.000  H
  C348     1.0000 0.20150  0.16030  0.47730  Biso   1.000  C
  C349     1.0000 0.20980  0.08780  0.46820  Biso   1.000  C
  H320     1.0000 0.18720  0.05420  0.46270  Biso   1.000  H
  C350     1.0000 0.25070  0.06100  0.46660  Biso   1.000  C
  C351     1.0000 0.28530  0.10920  0.47540  Biso   1.000  C
  H321     1.0000 0.31320  0.09040  0.47540  Biso   1.000  H
  C352     1.0000 0.94160  0.38010  0.53850  Biso   1.000  C
  H322     1.0000 0.94010  0.42020  0.52110  Biso   1.000  H
  C353     1.0000 0.91060  0.37490  0.56020  Biso   1.000  C
  H323     1.0000 0.88730  0.40830  0.55810  Biso   1.000  H
  C354     1.0000 0.91270  0.31980  0.58600  Biso   1.000  C
  H324     1.0000 0.89080  0.31360  0.60260  Biso   1.000  H
  C355     1.0000 0.94810  0.27160  0.58770  Biso   1.000  C
  H325     1.0000 0.95120  0.23320  0.60580  Biso   1.000  H
  C356     1.0000 0.97750  0.28300  0.56210  Biso   1.000  C
  C357     1.0000 0.01320  0.22810  0.56030  Biso   1.000  C
  H326     1.0000 0.00920  0.19770  0.53770  Biso   1.000  H
  H327     1.0000 0.03930  0.25760  0.55790  Biso   1.000  H
  C358     1.0000 0.04660  0.20240  0.61480  Biso   1.000  C
  C359     1.0000 0.12630  0.31770  0.87720  Biso   1.000  C
  H328     1.0000 0.14160  0.34640  0.89520  Biso   1.000  H
  C360     1.0000 0.08290  0.31040  0.88150  Biso   1.000  C
  H329     1.0000 0.06900  0.32690  0.90260  Biso   1.000  H
  C361     1.0000 0.06280  0.27700  0.85200  Biso   1.000  C
  H330     1.0000 0.03340  0.26990  0.85200  Biso   1.000  H
  C362     1.0000 0.08490  0.25310  0.82200  Biso   1.000  C
  H331     1.0000 0.06950  0.23430  0.80120  Biso   1.000  H
  C363     1.0000 0.12890  0.25560  0.82070  Biso   1.000  C
  C364     1.0000 0.15510  0.22790  0.79370  Biso   1.000  C
  H332     1.0000 0.17100  0.27060  0.78340  Biso   1.000  H
  H333     1.0000 0.17540  0.19170  0.80490  Biso   1.000  H
  C365     1.0000 0.11520  0.21570  0.73360  Biso   1.000  C
  C366     1.0000 0.01140  0.80340  0.81520  Biso   1.000  C
  H334     1.0000 0.01050  0.75630  0.82780  Biso   1.000  H
  C367     1.0000 0.99070  0.86450  0.83160  Biso   1.000  C
  H335     1.0000 0.97630  0.85970  0.85380  Biso   1.000  H
  C368     1.0000 0.99300  0.93230  0.81250  Biso   1.000  C
  H336     1.0000 0.97780  0.97520  0.82050  Biso   1.000  H
  C369     1.0000 0.01610  0.93820  0.78340  Biso   1.000  C
  H337     1.0000 0.02030  0.98570  0.77180  Biso   1.000  H
  C370     1.0000 0.03430  0.87100  0.77010  Biso   1.000  C
  C371     1.0000 0.05910  0.86230  0.73540  Biso   1.000  C
  H338     1.0000 0.04180  0.83520  0.71650  Biso   1.000  H
  H339     1.0000 0.08460  0.83200  0.74070  Biso   1.000  H
  C372     1.0000 0.04730  0.98130  0.69810  Biso   1.000  C
  C373     1.0000 0.06160  0.16240  0.65130  Biso   1.000  C
  C374     1.0000 0.08510  0.20340  0.67530  Biso   1.000  C
  H340     1.0000 0.09380  0.25360  0.66990  Biso   1.000  H
  C375     1.0000 0.09570  0.17000  0.70710  Biso   1.000  C
  C376     1.0000 0.08320  0.09990  0.71570  Biso   1.000  C
  H341     1.0000 0.08990  0.08000  0.73930  Biso   1.000  H
  C377     1.0000 0.06150  0.05790  0.69140  Biso   1.000  C
  C378     1.0000 0.04910  0.09070  0.65750  Biso   1.000  C
  H342     1.0000 0.03260  0.06340  0.63980  Biso   1.000  H
  C379     1.0000 0.53940  0.37690  0.57950  Biso   1.000  C
  H343     1.0000 0.54900  0.39960  0.55780  Biso   1.000  H
  C380     1.0000 0.56290  0.37680  0.60990  Biso   1.000  C
  H344     1.0000 0.59020  0.39840  0.61040  Biso   1.000  H
  C381     1.0000 0.54720  0.34490  0.64080  Biso   1.000  C
  H345     1.0000 0.56400  0.34360  0.66280  Biso   1.000  H
  C382     1.0000 0.50660  0.31420  0.64040  Biso   1.000  C
  H346     1.0000 0.49510  0.29210  0.66140  Biso   1.000  H
  C383     1.0000 0.48590  0.31820  0.60910  Biso   1.000  C
  C384     1.0000 0.44210  0.28700  0.60240  Biso   1.000  C
  H347     1.0000 0.44090  0.25750  0.57940  Biso   1.000  H
  H348     1.0000 0.42190  0.32930  0.59990  Biso   1.000  H
  C385     1.0000 0.40700  0.25580  0.66230  Biso   1.000  C
  C386     1.0000 0.57360  0.86100  0.74490  Biso   1.000  C
  H349     1.0000 0.58810  0.81550  0.75120  Biso   1.000  H
  C387     1.0000 0.59200  0.93040  0.75310  Biso   1.000  C
  H350     1.0000 0.62000  0.93110  0.76260  Biso   1.000  H
  C388     1.0000 0.57110  0.99940  0.74800  Biso   1.000  C
  H351     1.0000 0.58170  0.04610  0.75740  Biso   1.000  H
  C389     1.0000 0.53370  0.99370  0.72830  Biso   1.000  C
  H352     1.0000 0.52110  0.03860  0.71870  Biso   1.000  H
  C390     1.0000 0.51270  0.92170  0.72160  Biso   1.000  C
  C391     1.0000 0.46990  0.90980  0.70050  Biso   1.000  C
  H353     1.0000 0.45220  0.87380  0.71380  Biso   1.000  H
  H354     1.0000 0.47430  0.88930  0.67580  Biso   1.000  H
  C392     1.0000 0.42710  0.00850  0.72590  Biso   1.000  C
  C393     1.0000 0.28740  0.37530  0.88140  Biso   1.000  C
  H355     1.0000 0.26880  0.39690  0.89820  Biso   1.000  H
  C394     1.0000 0.33010  0.38770  0.88590  Biso   1.000  C
  H356     1.0000 0.34160  0.41550  0.90610  Biso   1.000  H
  C395     1.0000 0.35510  0.35750  0.85940  Biso   1.000  C
  H357     1.0000 0.38460  0.36260  0.86250  Biso   1.000  H
  C396     1.0000 0.34060  0.32320  0.83120  Biso   1.000  C
  H358     1.0000 0.35770  0.30760  0.81180  Biso   1.000  H
  C397     1.0000 0.29870  0.31070  0.83090  Biso   1.000  C
  C398     1.0000 0.27670  0.26890  0.79920  Biso   1.000  C
  H359     1.0000 0.25130  0.29760  0.79130  Biso   1.000  H
  H360     1.0000 0.26770  0.21850  0.80780  Biso   1.000  H
  C399     1.0000 0.31770  0.19900  0.76740  Biso   1.000  C
  C400     1.0000 0.39190  0.20290  0.69090  Biso   1.000  C
  C401     1.0000 0.41640  0.12980  0.69440  Biso   1.000  C
  H361     1.0000 0.43930  0.11890  0.67950  Biso   1.000  H
  C402     1.0000 0.40310  0.08000  0.72060  Biso   1.000  C
  C403     1.0000 0.37420  0.10530  0.74340  Biso   1.000  C
  H362     1.0000 0.36890  0.07310  0.76350  Biso   1.000  H
  C404     1.0000 0.35100  0.17220  0.74170  Biso   1.000  C
  C405     1.0000 0.36050  0.22090  0.71560  Biso   1.000  C
  H363     1.0000 0.34600  0.26790  0.71340  Biso   1.000  H
  C406     1.0000 0.32080  0.55930  0.44400  Biso   1.000  C
  H364     1.0000 0.32610  0.56740  0.41900  Biso   1.000  H
  C407     1.0000 0.33450  0.50000  0.46130  Biso   1.000  C
  H365     1.0000 0.34680  0.46020  0.44780  Biso   1.000  H
  C408     1.0000 0.33210  0.49230  0.49890  Biso   1.000  C
  H366     1.0000 0.34530  0.45020  0.51080  Biso   1.000  H
  C409     1.0000 0.31090  0.54490  0.51930  Biso   1.000  C
  H367     1.0000 0.30780  0.54010  0.54490  Biso   1.000  H
  C410     1.0000 0.29510  0.60280  0.49990  Biso   1.000  C
  C411     1.0000 0.27210  0.67000  0.51690  Biso   1.000  C
  H368     1.0000 0.24190  0.66590  0.51030  Biso   1.000  H
  H369     1.0000 0.28250  0.71760  0.50600  Biso   1.000  H
  C412     1.0000 0.24400  0.65490  0.57670  Biso   1.000  C
  C413     1.0000 0.52160  0.59210  0.69100  Biso   1.000  C
  H370     1.0000 0.54950  0.60220  0.69940  Biso   1.000  H
  C414     1.0000 0.51160  0.51810  0.67850  Biso   1.000  C
  H371     1.0000 0.53020  0.47640  0.68140  Biso   1.000  H
  C415     1.0000 0.47240  0.51210  0.66190  Biso   1.000  C
  H372     1.0000 0.46450  0.46550  0.65050  Biso   1.000  H
  C416     1.0000 0.44280  0.57460  0.66100  Biso   1.000  C
  H373     1.0000 0.41560  0.56650  0.65030  Biso   1.000  H
  C417     1.0000 0.45270  0.64670  0.67540  Biso   1.000  C
  C418     1.0000 0.42390  0.71580  0.67680  Biso   1.000  C
  H374     1.0000 0.43650  0.75930  0.66400  Biso   1.000  H
  H375     1.0000 0.41950  0.73050  0.70250  Biso   1.000  H
  C419     1.0000 0.35760  0.67080  0.68030  Biso   1.000  C
  C420     1.0000 0.06720  0.54250  0.77600  Biso   1.000  C
  H376     1.0000 0.04440  0.54610  0.79180  Biso   1.000  H
  C421     1.0000 0.08620  0.47050  0.76680  Biso   1.000  C
  H377     1.0000 0.07470  0.42630  0.77730  Biso   1.000  H
  C422     1.0000 0.11780  0.46090  0.74520  Biso   1.000  C
  H378     1.0000 0.12960  0.41240  0.74090  Biso   1.000  H
  C423     1.0000 0.13310  0.52630  0.72900  Biso   1.000  C
  H379     1.0000 0.15460  0.52250  0.71190  Biso   1.000  H
  C424     1.0000 0.11700  0.59790  0.73770  Biso   1.000  C
  C425     1.0000 0.13350  0.67230  0.72300  Biso   1.000  C
  H380     1.0000 0.14460  0.70350  0.74370  Biso   1.000  H
  H381     1.0000 0.11020  0.70050  0.71080  Biso   1.000  H
  C426     1.0000 0.20220  0.66480  0.70820  Biso   1.000  C
  C427     1.0000 0.26030  0.65840  0.61710  Biso   1.000  C
  C428     1.0000 0.30120  0.66250  0.62980  Biso   1.000  C
  H382     1.0000 0.32310  0.66390  0.61300  Biso   1.000  H
  C429     1.0000 0.31070  0.66480  0.66820  Biso   1.000  C
  C430     1.0000 0.27730  0.66330  0.69210  Biso   1.000  C
  H383     1.0000 0.28350  0.66380  0.71770  Biso   1.000  H
  C431     1.0000 0.23580  0.66120  0.68000  Biso   1.000  C
  C432     1.0000 0.22720  0.65840  0.64240  Biso   1.000  C
  H384     1.0000 0.19890  0.65650  0.63340  Biso   1.000  H
