data_image0
_cell_length_a       27.7653
_cell_length_b       27.7653
_cell_length_c       44.8044
_cell_angle_alpha    90
_cell_angle_beta     90
_cell_angle_gamma    120

_symmetry_space_group_name_H-M    "P 1"
_symmetry_int_tables_number       1

loop_
  _symmetry_equiv_pos_as_xyz
  'x, y, z'

loop_
  _atom_site_label
  _atom_site_occupancy
  _atom_site_fract_x
  _atom_site_fract_y
  _atom_site_fract_z
  _atom_site_thermal_displace_type
  _atom_site_B_iso_or_equiv
  _atom_site_type_symbol
  Fe1      1.0000 0.12636  0.04212  0.67236  Biso   1.000  Fe
  O1       1.0000 0.15170  0.99880  0.69843  Biso   1.000  O
  O2       1.0000 0.20040  0.10640  0.67543  Biso   1.000  O
  O3       1.0000 0.10180  0.08260  0.64332  Biso   1.000  O
  O4       1.0000 0.03040  0.08330  0.66485  Biso   1.000  O
  O5       1.0000 0.15410  0.02940  0.74501  Biso   1.000  O
  N1       1.0000 0.25040  0.16950  0.72305  Biso   1.000  N
  H1       1.0000 0.21690  0.14210  0.71860  Biso   1.000  H
  C1       1.0000 0.24940  0.11760  0.66444  Biso   1.000  C
  N2       1.0000 0.34110  0.22970  0.71851  Biso   1.000  N
  C2       1.0000 0.05820  0.12360  0.61684  Biso   1.000  C
  C3       1.0000 0.20690  0.04720  0.62383  Biso   1.000  C
  C4       1.0000 0.25560  0.09200  0.63901  Biso   1.000  C
  C5       1.0000 0.01840  0.14060  0.61544  Biso   1.000  C
  C6       1.0000 0.17570  0.01850  0.72287  Biso   1.000  C
  C7       1.0000 0.26450  0.20170  0.74795  Biso   1.000  C
  C8       1.0000 0.06230  0.09410  0.64371  Biso   1.000  C
  C9       1.0000 0.01780  0.17280  0.59121  Biso   1.000  C
  C10      1.0000 0.23520  0.03420  0.72672  Biso   1.000  C
  C11      1.0000 0.30840  0.10600  0.62882  Biso   1.000  C
  H2       1.0000 0.31170  0.08770  0.61170  Biso   1.000  H
  C12      1.0000 0.29890  0.15970  0.67884  Biso   1.000  C
  C13      1.0000 0.32130  0.23950  0.74495  Biso   1.000  C
  C14      1.0000 0.09510  0.13850  0.59354  Biso   1.000  C
  H3       1.0000 0.12180  0.12670  0.59390  Biso   1.000  H
  C15      1.0000 0.35040  0.17160  0.66741  Biso   1.000  C
  H4       1.0000 0.38300  0.19910  0.67720  Biso   1.000  H
  C16      1.0000 0.29700  0.18690  0.70622  Biso   1.000  C
  C17      1.0000 0.26230  0.02200  0.70480  Biso   1.000  C
  H5       1.0000 0.24260  0.00100  0.68780  Biso   1.000  H
  C18      1.0000 0.35660  0.14590  0.64297  Biso   1.000  C
  C19      1.0000 0.05510  0.18690  0.56850  Biso   1.000  C
  H6       1.0000 0.05420  0.20810  0.55210  Biso   1.000  H
  C20      1.0000 0.31980  0.04110  0.70790  Biso   1.000  C
  H7       1.0000 0.33840  0.03320  0.69260  Biso   1.000  H
  C21      1.0000 0.41330  0.15870  0.63200  Biso   1.000  C
  H8       1.0000 0.41000  0.14380  0.61180  Biso   1.000  H
  H9       1.0000 0.42830  0.14150  0.64540  Biso   1.000  H
  H10      1.0000 0.43840  0.19900  0.63180  Biso   1.000  H
  C22      1.0000 0.09500  0.16980  0.56970  Biso   1.000  C
  H11      1.0000 0.12160  0.17980  0.55420  Biso   1.000  H
  C23      1.0000 0.35010  0.07140  0.73300  Biso   1.000  C
  H12      1.0000 0.38880  0.08430  0.73480  Biso   1.000  H
  O6       1.0000 0.09494  0.05890  0.70620  Biso   1.000  O
  N3       1.0000 0.15520  0.02170  0.63557  Biso   1.000  N
  N4       1.0000 0.20780  0.02460  0.59750  Biso   1.000  N
  H13      1.0000 0.23730  0.03510  0.58620  Biso   1.000  H
  Fe2      1.0000 0.95788  0.08424  0.67236  Biso   1.000  Fe
  O7       1.0000 0.00120  0.15290  0.69843  Biso   1.000  O
  O8       1.0000 0.89360  0.09400  0.67543  Biso   1.000  O
  O9       1.0000 0.91740  0.01920  0.64332  Biso   1.000  O
  O10      1.0000 0.91670  0.94710  0.66485  Biso   1.000  O
  O11      1.0000 0.97060  0.12470  0.74501  Biso   1.000  O
  N5       1.0000 0.83050  0.08090  0.72305  Biso   1.000  N
  H14      1.0000 0.85790  0.07480  0.71860  Biso   1.000  H
  C24      1.0000 0.88240  0.13180  0.66444  Biso   1.000  C
  N6       1.0000 0.77030  0.11140  0.71851  Biso   1.000  N
  C25      1.0000 0.87640  0.93460  0.61684  Biso   1.000  C
  C26      1.0000 0.95280  0.15970  0.62383  Biso   1.000  C
  C27      1.0000 0.90800  0.16360  0.63901  Biso   1.000  C
  C28      1.0000 0.85940  0.87780  0.61544  Biso   1.000  C
  C29      1.0000 0.98150  0.15720  0.72287  Biso   1.000  C
  C30      1.0000 0.79830  0.06280  0.74795  Biso   1.000  C
  C31      1.0000 0.90590  0.96820  0.64371  Biso   1.000  C
  C32      1.0000 0.82720  0.84500  0.59121  Biso   1.000  C
  C33      1.0000 0.96580  0.20100  0.72672  Biso   1.000  C
  C34      1.0000 0.89400  0.20240  0.62882  Biso   1.000  C
  H15      1.0000 0.91230  0.22400  0.61170  Biso   1.000  H
  C35      1.0000 0.84030  0.13920  0.67884  Biso   1.000  C
  C36      1.0000 0.76050  0.08180  0.74495  Biso   1.000  C
  C37      1.0000 0.86150  0.95660  0.59354  Biso   1.000  C
  H16      1.0000 0.87330  0.99510  0.59390  Biso   1.000  H
  C38      1.0000 0.82840  0.17880  0.66741  Biso   1.000  C
  H17      1.0000 0.80090  0.18390  0.67720  Biso   1.000  H
  C39      1.0000 0.81310  0.11010  0.70622  Biso   1.000  C
  C40      1.0000 0.97800  0.24030  0.70480  Biso   1.000  C
  H18      1.0000 0.99900  0.24160  0.68780  Biso   1.000  H
  C41      1.0000 0.85410  0.21070  0.64297  Biso   1.000  C
  C42      1.0000 0.81310  0.86820  0.56850  Biso   1.000  C
  H19      1.0000 0.79190  0.84610  0.55210  Biso   1.000  H
  C43      1.0000 0.95890  0.27870  0.70790  Biso   1.000  C
  H20      1.0000 0.96680  0.30520  0.69260  Biso   1.000  H
  C44      1.0000 0.84130  0.25460  0.63200  Biso   1.000  C
  H21      1.0000 0.85620  0.26620  0.61180  Biso   1.000  H
  H22      1.0000 0.85850  0.28680  0.64540  Biso   1.000  H
  H23      1.0000 0.80100  0.23940  0.63180  Biso   1.000  H
  C45      1.0000 0.83020  0.92520  0.56970  Biso   1.000  C
  H24      1.0000 0.82020  0.94180  0.55420  Biso   1.000  H
  C46      1.0000 0.92860  0.27870  0.73300  Biso   1.000  C
  H25      1.0000 0.91570  0.30450  0.73480  Biso   1.000  H
  O12      1.0000 0.94110  0.03604  0.70620  Biso   1.000  O
  N7       1.0000 0.97830  0.13350  0.63557  Biso   1.000  N
  N8       1.0000 0.97540  0.18320  0.59750  Biso   1.000  N
  H26      1.0000 0.96490  0.20220  0.58620  Biso   1.000  H
  Fe3      1.0000 0.91576  0.87364  0.67236  Biso   1.000  Fe
  O13      1.0000 0.84710  0.84830  0.69843  Biso   1.000  O
  O14      1.0000 0.90600  0.79960  0.67543  Biso   1.000  O
  O15      1.0000 0.98080  0.89820  0.64332  Biso   1.000  O
  O16      1.0000 0.05290  0.96960  0.66485  Biso   1.000  O
  O17      1.0000 0.87530  0.84590  0.74501  Biso   1.000  O
  N9       1.0000 0.91910  0.74960  0.72305  Biso   1.000  N
  H27      1.0000 0.92520  0.78310  0.71860  Biso   1.000  H
  C47      1.0000 0.86820  0.75060  0.66444  Biso   1.000  C
  N10      1.0000 0.88860  0.65890  0.71851  Biso   1.000  N
  C48      1.0000 0.06540  0.94180  0.61684  Biso   1.000  C
  C49      1.0000 0.84030  0.79310  0.62383  Biso   1.000  C
  C50      1.0000 0.83640  0.74440  0.63901  Biso   1.000  C
  C51      1.0000 0.12220  0.98160  0.61544  Biso   1.000  C
  C52      1.0000 0.84280  0.82430  0.72287  Biso   1.000  C
  C53      1.0000 0.93720  0.73550  0.74795  Biso   1.000  C
  C54      1.0000 0.03180  0.93770  0.64371  Biso   1.000  C
  C55      1.0000 0.15500  0.98220  0.59121  Biso   1.000  C
  C56      1.0000 0.79900  0.76480  0.72672  Biso   1.000  C
  C57      1.0000 0.79760  0.69160  0.62882  Biso   1.000  C
  H28      1.0000 0.77600  0.68830  0.61170  Biso   1.000  H
  C58      1.0000 0.86080  0.70110  0.67884  Biso   1.000  C
  C59      1.0000 0.91820  0.67870  0.74495  Biso   1.000  C
  C60      1.0000 0.04340  0.90490  0.59354  Biso   1.000  C
  H29      1.0000 0.00490  0.87820  0.59390  Biso   1.000  H
  C61      1.0000 0.82120  0.64960  0.66741  Biso   1.000  C
  H30      1.0000 0.81610  0.61700  0.67720  Biso   1.000  H
  C62      1.0000 0.88990  0.70300  0.70622  Biso   1.000  C
  C63      1.0000 0.75970  0.73770  0.70480  Biso   1.000  C
  H31      1.0000 0.75840  0.75740  0.68780  Biso   1.000  H
  C64      1.0000 0.78930  0.64340  0.64297  Biso   1.000  C
  C65      1.0000 0.13180  0.94490  0.56850  Biso   1.000  C
  H32      1.0000 0.15390  0.94580  0.55210  Biso   1.000  H
  C66      1.0000 0.72130  0.68020  0.70790  Biso   1.000  C
  H33      1.0000 0.69480  0.66160  0.69260  Biso   1.000  H
  C67      1.0000 0.74540  0.58670  0.63200  Biso   1.000  C
  H34      1.0000 0.73380  0.59000  0.61180  Biso   1.000  H
  H35      1.0000 0.71320  0.57170  0.64540  Biso   1.000  H
  H36      1.0000 0.76060  0.56160  0.63180  Biso   1.000  H
  C68      1.0000 0.07480  0.90500  0.56970  Biso   1.000  C
  H37      1.0000 0.05820  0.87840  0.55420  Biso   1.000  H
  C69      1.0000 0.72130  0.64990  0.73300  Biso   1.000  C
  H38      1.0000 0.69550  0.61120  0.73480  Biso   1.000  H
  O18      1.0000 0.96396  0.90506  0.70620  Biso   1.000  O
  N11      1.0000 0.86650  0.84480  0.63557  Biso   1.000  N
  N12      1.0000 0.81680  0.79220  0.59750  Biso   1.000  N
  H39      1.0000 0.79780  0.76270  0.58620  Biso   1.000  H
  Fe4      1.0000 0.95788  0.87364  0.82764  Biso   1.000  Fe
  O19      1.0000 0.00120  0.84830  0.80157  Biso   1.000  O
  O20      1.0000 0.89360  0.79960  0.82457  Biso   1.000  O
  O21      1.0000 0.91740  0.89820  0.85668  Biso   1.000  O
  O22      1.0000 0.91670  0.96960  0.83515  Biso   1.000  O
  O23      1.0000 0.97060  0.84590  0.75499  Biso   1.000  O
  N13      1.0000 0.83050  0.74960  0.77695  Biso   1.000  N
  H40      1.0000 0.85790  0.78310  0.78140  Biso   1.000  H
  C70      1.0000 0.88240  0.75060  0.83556  Biso   1.000  C
  N14      1.0000 0.77030  0.65890  0.78149  Biso   1.000  N
  C71      1.0000 0.87640  0.94180  0.88316  Biso   1.000  C
  C72      1.0000 0.95280  0.79310  0.87617  Biso   1.000  C
  C73      1.0000 0.90800  0.74440  0.86099  Biso   1.000  C
  C74      1.0000 0.85940  0.98160  0.88456  Biso   1.000  C
  C75      1.0000 0.98150  0.82430  0.77713  Biso   1.000  C
  C76      1.0000 0.79830  0.73550  0.75205  Biso   1.000  C
  C77      1.0000 0.90590  0.93770  0.85629  Biso   1.000  C
  C78      1.0000 0.82720  0.98220  0.90879  Biso   1.000  C
  C79      1.0000 0.96580  0.76480  0.77328  Biso   1.000  C
  C80      1.0000 0.89400  0.69160  0.87118  Biso   1.000  C
  H41      1.0000 0.91230  0.68830  0.88830  Biso   1.000  H
  C81      1.0000 0.84030  0.70110  0.82116  Biso   1.000  C
  C82      1.0000 0.76050  0.67870  0.75505  Biso   1.000  C
  C83      1.0000 0.86150  0.90490  0.90646  Biso   1.000  C
  H42      1.0000 0.87330  0.87820  0.90610  Biso   1.000  H
  C84      1.0000 0.82840  0.64960  0.83259  Biso   1.000  C
  H43      1.0000 0.80090  0.61700  0.82280  Biso   1.000  H
  C85      1.0000 0.81310  0.70300  0.79378  Biso   1.000  C
  C86      1.0000 0.97800  0.73770  0.79520  Biso   1.000  C
  H44      1.0000 0.99900  0.75740  0.81220  Biso   1.000  H
  C87      1.0000 0.85410  0.64340  0.85703  Biso   1.000  C
  C88      1.0000 0.81310  0.94490  0.93150  Biso   1.000  C
  H45      1.0000 0.79190  0.94580  0.94790  Biso   1.000  H
  C89      1.0000 0.95890  0.68020  0.79210  Biso   1.000  C
  H46      1.0000 0.96680  0.66160  0.80740  Biso   1.000  H
  C90      1.0000 0.84130  0.58670  0.86800  Biso   1.000  C
  H47      1.0000 0.85620  0.59000  0.88820  Biso   1.000  H
  H48      1.0000 0.85850  0.57170  0.85460  Biso   1.000  H
  H49      1.0000 0.80100  0.56160  0.86820  Biso   1.000  H
  C91      1.0000 0.83020  0.90500  0.93030  Biso   1.000  C
  H50      1.0000 0.82020  0.87840  0.94580  Biso   1.000  H
  C92      1.0000 0.92860  0.64990  0.76700  Biso   1.000  C
  H51      1.0000 0.91570  0.61120  0.76520  Biso   1.000  H
  O24      1.0000 0.94110  0.90506  0.79380  Biso   1.000  O
  N15      1.0000 0.97830  0.84480  0.86443  Biso   1.000  N
  N16      1.0000 0.97540  0.79220  0.90250  Biso   1.000  N
  H52      1.0000 0.96490  0.76270  0.91380  Biso   1.000  H
  Fe5      1.0000 0.91576  0.04212  0.82764  Biso   1.000  Fe
  O25      1.0000 0.84710  0.99880  0.80157  Biso   1.000  O
  O26      1.0000 0.90600  0.10640  0.82457  Biso   1.000  O
  O27      1.0000 0.98080  0.08260  0.85668  Biso   1.000  O
  O28      1.0000 0.05290  0.08330  0.83515  Biso   1.000  O
  O29      1.0000 0.87530  0.02940  0.75499  Biso   1.000  O
  N17      1.0000 0.91910  0.16950  0.77695  Biso   1.000  N
  H53      1.0000 0.92520  0.14210  0.78140  Biso   1.000  H
  C93      1.0000 0.86820  0.11760  0.83556  Biso   1.000  C
  N18      1.0000 0.88860  0.22970  0.78149  Biso   1.000  N
  C94      1.0000 0.06540  0.12360  0.88316  Biso   1.000  C
  C95      1.0000 0.84030  0.04720  0.87617  Biso   1.000  C
  C96      1.0000 0.83640  0.09200  0.86099  Biso   1.000  C
  C97      1.0000 0.12220  0.14060  0.88456  Biso   1.000  C
  C98      1.0000 0.84280  0.01850  0.77713  Biso   1.000  C
  C99      1.0000 0.93720  0.20170  0.75205  Biso   1.000  C
  C100     1.0000 0.03180  0.09410  0.85629  Biso   1.000  C
  C101     1.0000 0.15500  0.17280  0.90879  Biso   1.000  C
  C102     1.0000 0.79900  0.03420  0.77328  Biso   1.000  C
  C103     1.0000 0.79760  0.10600  0.87118  Biso   1.000  C
  H54      1.0000 0.77600  0.08770  0.88830  Biso   1.000  H
  C104     1.0000 0.86080  0.15970  0.82116  Biso   1.000  C
  C105     1.0000 0.91820  0.23950  0.75505  Biso   1.000  C
  C106     1.0000 0.04340  0.13850  0.90646  Biso   1.000  C
  H55      1.0000 0.00490  0.12670  0.90610  Biso   1.000  H
  C107     1.0000 0.82120  0.17160  0.83259  Biso   1.000  C
  H56      1.0000 0.81610  0.19910  0.82280  Biso   1.000  H
  C108     1.0000 0.88990  0.18690  0.79378  Biso   1.000  C
  C109     1.0000 0.75970  0.02200  0.79520  Biso   1.000  C
  H57      1.0000 0.75840  0.00100  0.81220  Biso   1.000  H
  C110     1.0000 0.78930  0.14590  0.85703  Biso   1.000  C
  C111     1.0000 0.13180  0.18690  0.93150  Biso   1.000  C
  H58      1.0000 0.15390  0.20810  0.94790  Biso   1.000  H
  C112     1.0000 0.72130  0.04110  0.79210  Biso   1.000  C
  H59      1.0000 0.69480  0.03320  0.80740  Biso   1.000  H
  C113     1.0000 0.74540  0.15870  0.86800  Biso   1.000  C
  H60      1.0000 0.73380  0.14380  0.88820  Biso   1.000  H
  H61      1.0000 0.71320  0.14150  0.85460  Biso   1.000  H
  H62      1.0000 0.76060  0.19900  0.86820  Biso   1.000  H
  C114     1.0000 0.07480  0.16980  0.93030  Biso   1.000  C
  H63      1.0000 0.05820  0.17980  0.94580  Biso   1.000  H
  C115     1.0000 0.72130  0.07140  0.76700  Biso   1.000  C
  H64      1.0000 0.69550  0.08430  0.76520  Biso   1.000  H
  O30      1.0000 0.96396  0.05890  0.79380  Biso   1.000  O
  N19      1.0000 0.86650  0.02170  0.86443  Biso   1.000  N
  N20      1.0000 0.81680  0.02460  0.90250  Biso   1.000  N
  H65      1.0000 0.79780  0.03510  0.91380  Biso   1.000  H
  Fe6      1.0000 0.12636  0.08424  0.82764  Biso   1.000  Fe
  O31      1.0000 0.15170  0.15290  0.80157  Biso   1.000  O
  O32      1.0000 0.20040  0.09400  0.82457  Biso   1.000  O
  O33      1.0000 0.10180  0.01920  0.85668  Biso   1.000  O
  O34      1.0000 0.03040  0.94710  0.83515  Biso   1.000  O
  O35      1.0000 0.15410  0.12470  0.75499  Biso   1.000  O
  N21      1.0000 0.25040  0.08090  0.77695  Biso   1.000  N
  H66      1.0000 0.21690  0.07480  0.78140  Biso   1.000  H
  C116     1.0000 0.24940  0.13180  0.83556  Biso   1.000  C
  N22      1.0000 0.34110  0.11140  0.78149  Biso   1.000  N
  C117     1.0000 0.05820  0.93460  0.88316  Biso   1.000  C
  C118     1.0000 0.20690  0.15970  0.87617  Biso   1.000  C
  C119     1.0000 0.25560  0.16360  0.86099  Biso   1.000  C
  C120     1.0000 0.01840  0.87780  0.88456  Biso   1.000  C
  C121     1.0000 0.17570  0.15720  0.77713  Biso   1.000  C
  C122     1.0000 0.26450  0.06280  0.75205  Biso   1.000  C
  C123     1.0000 0.06230  0.96820  0.85629  Biso   1.000  C
  C124     1.0000 0.01780  0.84500  0.90879  Biso   1.000  C
  C125     1.0000 0.23520  0.20100  0.77328  Biso   1.000  C
  C126     1.0000 0.30840  0.20240  0.87118  Biso   1.000  C
  H67      1.0000 0.31170  0.22400  0.88830  Biso   1.000  H
  C127     1.0000 0.29890  0.13920  0.82116  Biso   1.000  C
  C128     1.0000 0.32130  0.08180  0.75505  Biso   1.000  C
  C129     1.0000 0.09510  0.95660  0.90646  Biso   1.000  C
  H68      1.0000 0.12180  0.99510  0.90610  Biso   1.000  H
  C130     1.0000 0.35040  0.17880  0.83259  Biso   1.000  C
  H69      1.0000 0.38300  0.18390  0.82280  Biso   1.000  H
  C131     1.0000 0.29700  0.11010  0.79378  Biso   1.000  C
  C132     1.0000 0.26230  0.24030  0.79520  Biso   1.000  C
  H70      1.0000 0.24260  0.24160  0.81220  Biso   1.000  H
  C133     1.0000 0.35660  0.21070  0.85703  Biso   1.000  C
  C134     1.0000 0.05510  0.86820  0.93150  Biso   1.000  C
  H71      1.0000 0.05420  0.84610  0.94790  Biso   1.000  H
  C135     1.0000 0.31980  0.27870  0.79210  Biso   1.000  C
  H72      1.0000 0.33840  0.30520  0.80740  Biso   1.000  H
  C136     1.0000 0.41330  0.25460  0.86800  Biso   1.000  C
  H73      1.0000 0.41000  0.26620  0.88820  Biso   1.000  H
  H74      1.0000 0.42830  0.28680  0.85460  Biso   1.000  H
  H75      1.0000 0.43840  0.23940  0.86820  Biso   1.000  H
  C137     1.0000 0.09500  0.92520  0.93030  Biso   1.000  C
  H76      1.0000 0.12160  0.94180  0.94580  Biso   1.000  H
  C138     1.0000 0.35010  0.27870  0.76700  Biso   1.000  C
  H77      1.0000 0.38880  0.30450  0.76520  Biso   1.000  H
  O36      1.0000 0.09494  0.03604  0.79380  Biso   1.000  O
  N23      1.0000 0.15520  0.13350  0.86443  Biso   1.000  N
  N24      1.0000 0.20780  0.18320  0.90250  Biso   1.000  N
  H78      1.0000 0.23730  0.20220  0.91380  Biso   1.000  H
  Fe7      1.0000 0.08926  0.04463  0.75000  Biso   1.000  Fe
  Fe8      1.0000 0.95537  0.04463  0.75000  Biso   1.000  Fe
  Fe9      1.0000 0.95537  0.91074  0.75000  Biso   1.000  Fe
  O37      1.0000 0.03520  0.07040  0.75000  Biso   1.000  O
  O38      1.0000 0.92960  0.96480  0.75000  Biso   1.000  O
  O39      1.0000 0.03520  0.96480  0.75000  Biso   1.000  O
  Fe10     1.0000 0.54725  0.31429  0.57075  Biso   1.000  Fe
  Fe11     1.0000 0.57857  0.29987  0.49388  Biso   1.000  Fe
  Fe12     1.0000 0.53909  0.26214  0.41581  Biso   1.000  Fe
  O40      1.0000 0.63990  0.37690  0.49409  Biso   1.000  O
  O41      1.0000 0.50810  0.22510  0.48903  Biso   1.000  O
  O42      1.0000 0.62150  0.24710  0.57830  Biso   1.000  O
  O43      1.0000 0.57280  0.28800  0.53741  Biso   1.000  O
  O44      1.0000 0.52980  0.36130  0.54345  Biso   1.000  O
  O45      1.0000 0.56310  0.26770  0.60125  Biso   1.000  O
  O46      1.0000 0.52180  0.32650  0.49733  Biso   1.000  O
  O47      1.0000 0.46960  0.25730  0.56821  Biso   1.000  O
  O48      1.0000 0.57690  0.30940  0.44968  Biso   1.000  O
  O49      1.0000 0.50430  0.19420  0.44231  Biso   1.000  O
  O50      1.0000 0.67240  0.24160  0.38628  Biso   1.000  O
  N25      1.0000 0.52610  0.34140  0.60829  Biso   1.000  N
  O51      1.0000 0.47150  0.26430  0.41947  Biso   1.000  O
  O52      1.0000 0.60560  0.25260  0.40780  Biso   1.000  O
  N26      1.0000 0.42910  0.29310  0.46420  Biso   1.000  N
  H79      1.0000 0.45970  0.29230  0.46040  Biso   1.000  H
  N27      1.0000 0.32050  0.15470  0.52395  Biso   1.000  N
  N28      1.0000 0.41370  0.19660  0.52189  Biso   1.000  N
  H80      1.0000 0.44860  0.21730  0.52740  Biso   1.000  H
  C139     1.0000 0.42370  0.25350  0.57970  Biso   1.000  C
  N29      1.0000 0.47900  0.33890  0.64897  Biso   1.000  N
  C140     1.0000 0.47550  0.32100  0.62045  Biso   1.000  C
  C141     1.0000 0.37250  0.21790  0.56585  Biso   1.000  C
  C142     1.0000 0.50450  0.34300  0.51856  Biso   1.000  C
  C143     1.0000 0.42400  0.24100  0.40502  Biso   1.000  C
  C144     1.0000 0.48200  0.19450  0.46726  Biso   1.000  C
  C145     1.0000 0.42370  0.28240  0.60596  Biso   1.000  C
  C146     1.0000 0.59350  0.24570  0.60131  Biso   1.000  C
  N30      1.0000 0.34330  0.28040  0.45807  Biso   1.000  N
  C147     1.0000 0.42550  0.35610  0.53630  Biso   1.000  C
  H81      1.0000 0.44460  0.37280  0.55430  Biso   1.000  H
  C148     1.0000 0.41870  0.31410  0.48909  Biso   1.000  C
  C149     1.0000 0.42050  0.16020  0.47002  Biso   1.000  C
  N31      1.0000 0.50570  0.21680  0.37734  Biso   1.000  N
  C150     1.0000 0.32280  0.23940  0.60300  Biso   1.000  C
  C151     1.0000 0.41530  0.21070  0.37800  Biso   1.000  C
  C152     1.0000 0.32970  0.22390  0.40060  Biso   1.000  C
  H82      1.0000 0.30000  0.22770  0.40840  Biso   1.000  H
  C153     1.0000 0.36870  0.18850  0.53760  Biso   1.000  C
  C154     1.0000 0.37360  0.27490  0.61660  Biso   1.000  C
  H83      1.0000 0.37390  0.29470  0.63400  Biso   1.000  H
  C155     1.0000 0.59640  0.21790  0.62869  Biso   1.000  C
  C156     1.0000 0.44980  0.33930  0.51490  Biso   1.000  C
  C157     1.0000 0.32400  0.21180  0.57780  Biso   1.000  C
  H84      1.0000 0.28980  0.18730  0.56820  Biso   1.000  H
  C158     1.0000 0.38690  0.12710  0.44760  Biso   1.000  C
  H85      1.0000 0.40350  0.12230  0.43010  Biso   1.000  H
  C159     1.0000 0.39460  0.16630  0.49530  Biso   1.000  C
  C160     1.0000 0.30370  0.10710  0.47380  Biso   1.000  C
  H86      1.0000 0.26430  0.08960  0.47460  Biso   1.000  H
  C161     1.0000 0.37840  0.24520  0.41684  Biso   1.000  C
  C162     1.0000 0.38280  0.27320  0.44580  Biso   1.000  C
  C163     1.0000 0.26810  0.23200  0.61570  Biso   1.000  C
  H87      1.0000 0.26130  0.21440  0.63540  Biso   1.000  H
  H88      1.0000 0.23740  0.20840  0.60230  Biso   1.000  H
  H89      1.0000 0.27080  0.26840  0.61760  Biso   1.000  H
  C164     1.0000 0.56410  0.37350  0.62977  Biso   1.000  C
  C165     1.0000 0.36440  0.30630  0.48490  Biso   1.000  C
  C166     1.0000 0.33650  0.14050  0.49790  Biso   1.000  C
  C167     1.0000 0.56800  0.21680  0.65440  Biso   1.000  C
  H90      1.0000 0.58250  0.25600  0.66050  Biso   1.000  H
  H91      1.0000 0.52860  0.20190  0.64870  Biso   1.000  H
  C168     1.0000 0.37140  0.34790  0.53100  Biso   1.000  C
  H92      1.0000 0.35530  0.36000  0.54580  Biso   1.000  H
  C169     1.0000 0.36450  0.19050  0.36310  Biso   1.000  C
  H93      1.0000 0.35900  0.17100  0.34480  Biso   1.000  H
  C170     1.0000 0.32930  0.10030  0.44940  Biso   1.000  C
  H94      1.0000 0.30740  0.07690  0.43360  Biso   1.000  H
  N32      1.0000 0.45620  0.18380  0.33730  Biso   1.000  N
  H95      1.0000 0.42790  0.17240  0.32500  Biso   1.000  H
  C171     1.0000 0.34190  0.32430  0.50640  Biso   1.000  C
  H96      1.0000 0.30590  0.32000  0.50380  Biso   1.000  H
  C172     1.0000 0.62420  0.23720  0.38640  Biso   1.000  C
  C173     1.0000 0.32240  0.19780  0.37400  Biso   1.000  C
  C174     1.0000 0.53590  0.37290  0.65560  Biso   1.000  C
  C175     1.0000 0.56340  0.40220  0.68100  Biso   1.000  C
  H97      1.0000 0.54410  0.40190  0.69860  Biso   1.000  H
  C176     1.0000 0.53610  0.20520  0.35692  Biso   1.000  C
  C177     1.0000 0.50460  0.18360  0.33120  Biso   1.000  C
  C178     1.0000 0.52630  0.16940  0.30700  Biso   1.000  C
  H98      1.0000 0.50480  0.15460  0.28940  Biso   1.000  H
  C179     1.0000 0.57970  0.17690  0.30857  Biso   1.000  C
  H99      1.0000 0.59450  0.16720  0.29200  Biso   1.000  H
  C180     1.0000 0.61120  0.19850  0.33430  Biso   1.000  C
  H100     1.0000 0.64760  0.20360  0.33540  Biso   1.000  H
  C181     1.0000 0.58940  0.21270  0.35848  Biso   1.000  C
  C182     1.0000 0.56830  0.18860  0.67910  Biso   1.000  C
  H101     1.0000 0.54700  0.18780  0.69590  Biso   1.000  H
  C183     1.0000 0.45850  0.20360  0.36460  Biso   1.000  C
  C184     1.0000 0.26750  0.17340  0.35670  Biso   1.000  C
  H102     1.0000 0.23810  0.14260  0.36810  Biso   1.000  H
  H103     1.0000 0.27180  0.15980  0.33730  Biso   1.000  H
  H104     1.0000 0.25750  0.20230  0.35380  Biso   1.000  H
  Fe13     1.0000 0.68571  0.23296  0.57075  Biso   1.000  Fe
  Fe14     1.0000 0.70013  0.27870  0.49388  Biso   1.000  Fe
  Fe15     1.0000 0.73786  0.27695  0.41581  Biso   1.000  Fe
  O53      1.0000 0.62310  0.26300  0.49409  Biso   1.000  O
  O54      1.0000 0.77490  0.28300  0.48903  Biso   1.000  O
  O55      1.0000 0.75290  0.37440  0.57830  Biso   1.000  O
  O56      1.0000 0.71200  0.28480  0.53741  Biso   1.000  O
  O57      1.0000 0.63870  0.16850  0.54345  Biso   1.000  O
  O58      1.0000 0.73230  0.29540  0.60125  Biso   1.000  O
  O59      1.0000 0.67350  0.19530  0.49733  Biso   1.000  O
  O60      1.0000 0.74270  0.21230  0.56821  Biso   1.000  O
  O61      1.0000 0.69060  0.26750  0.44968  Biso   1.000  O
  O62      1.0000 0.80580  0.31010  0.44231  Biso   1.000  O
  O63      1.0000 0.75840  0.43080  0.38628  Biso   1.000  O
  N33      1.0000 0.65860  0.18470  0.60829  Biso   1.000  N
  O64      1.0000 0.73570  0.20720  0.41947  Biso   1.000  O
  O65      1.0000 0.74740  0.35300  0.40780  Biso   1.000  O
  N34      1.0000 0.70690  0.13600  0.46420  Biso   1.000  N
  H105     1.0000 0.70770  0.16740  0.46040  Biso   1.000  H
  N35      1.0000 0.84530  0.16580  0.52395  Biso   1.000  N
  N36      1.0000 0.80340  0.21710  0.52189  Biso   1.000  N
  H106     1.0000 0.78270  0.23130  0.52740  Biso   1.000  H
  C185     1.0000 0.74650  0.17020  0.57970  Biso   1.000  C
  N37      1.0000 0.66110  0.14010  0.64897  Biso   1.000  N
  C186     1.0000 0.67900  0.15450  0.62045  Biso   1.000  C
  C187     1.0000 0.78210  0.15460  0.56585  Biso   1.000  C
  C188     1.0000 0.65700  0.16150  0.51856  Biso   1.000  C
  C189     1.0000 0.75900  0.18300  0.40502  Biso   1.000  C
  C190     1.0000 0.80550  0.28750  0.46726  Biso   1.000  C
  C191     1.0000 0.71760  0.14130  0.60596  Biso   1.000  C
  C192     1.0000 0.75430  0.34780  0.60131  Biso   1.000  C
  N38      1.0000 0.71960  0.06290  0.45807  Biso   1.000  N
  C193     1.0000 0.64390  0.06940  0.53630  Biso   1.000  C
  H107     1.0000 0.62720  0.07180  0.55430  Biso   1.000  H
  C194     1.0000 0.68590  0.10460  0.48909  Biso   1.000  C
  C195     1.0000 0.83980  0.26030  0.47002  Biso   1.000  C
  N39      1.0000 0.78320  0.28890  0.37734  Biso   1.000  N
  C196     1.0000 0.76060  0.08340  0.60300  Biso   1.000  C
  C197     1.0000 0.78930  0.20460  0.37800  Biso   1.000  C
  C198     1.0000 0.77610  0.10580  0.40060  Biso   1.000  C
  H108     1.0000 0.77230  0.07230  0.40840  Biso   1.000  H
  C199     1.0000 0.81150  0.18020  0.53760  Biso   1.000  C
  C200     1.0000 0.72510  0.09870  0.61660  Biso   1.000  C
  H109     1.0000 0.70530  0.07920  0.63400  Biso   1.000  H
  C201     1.0000 0.78210  0.37850  0.62869  Biso   1.000  C
  C202     1.0000 0.66070  0.11050  0.51490  Biso   1.000  C
  C203     1.0000 0.78820  0.11220  0.57780  Biso   1.000  C
  H110     1.0000 0.81270  0.10250  0.56820  Biso   1.000  H
  C204     1.0000 0.87290  0.25980  0.44760  Biso   1.000  C
  H111     1.0000 0.87770  0.28120  0.43010  Biso   1.000  H
  C205     1.0000 0.83370  0.22830  0.49530  Biso   1.000  C
  C206     1.0000 0.89290  0.19660  0.47380  Biso   1.000  C
  H112     1.0000 0.91040  0.17470  0.47460  Biso   1.000  H
  C207     1.0000 0.75480  0.13320  0.41684  Biso   1.000  C
  C208     1.0000 0.72680  0.10960  0.44580  Biso   1.000  C
  C209     1.0000 0.76800  0.03610  0.61570  Biso   1.000  C
  H113     1.0000 0.78560  0.04690  0.63540  Biso   1.000  H
  H114     1.0000 0.79160  0.02900  0.60230  Biso   1.000  H
  H115     1.0000 0.73160  0.00240  0.61760  Biso   1.000  H
  C210     1.0000 0.62650  0.19060  0.62977  Biso   1.000  C
  C211     1.0000 0.69370  0.05810  0.48490  Biso   1.000  C
  C212     1.0000 0.85950  0.19600  0.49790  Biso   1.000  C
  C213     1.0000 0.78320  0.35120  0.65440  Biso   1.000  C
  H116     1.0000 0.74400  0.32650  0.66050  Biso   1.000  H
  H117     1.0000 0.79810  0.32670  0.64870  Biso   1.000  H
  C214     1.0000 0.65210  0.02350  0.53100  Biso   1.000  C
  H118     1.0000 0.64000  0.99530  0.54580  Biso   1.000  H
  C215     1.0000 0.80950  0.17400  0.36310  Biso   1.000  C
  H119     1.0000 0.82900  0.18800  0.34480  Biso   1.000  H
  C216     1.0000 0.89970  0.22900  0.44940  Biso   1.000  C
  H120     1.0000 0.92310  0.23050  0.43360  Biso   1.000  H
  N40      1.0000 0.81620  0.27240  0.33730  Biso   1.000  N
  H121     1.0000 0.82760  0.25550  0.32500  Biso   1.000  H
  C217     1.0000 0.67570  0.01760  0.50640  Biso   1.000  C
  H122     1.0000 0.68000  0.98590  0.50380  Biso   1.000  H
  C218     1.0000 0.76280  0.38700  0.38640  Biso   1.000  C
  C219     1.0000 0.80220  0.12460  0.37400  Biso   1.000  C
  C220     1.0000 0.62710  0.16300  0.65560  Biso   1.000  C
  C221     1.0000 0.59780  0.16120  0.68100  Biso   1.000  C
  H123     1.0000 0.59810  0.14220  0.69860  Biso   1.000  H
  C222     1.0000 0.79480  0.33090  0.35692  Biso   1.000  C
  C223     1.0000 0.81640  0.32100  0.33120  Biso   1.000  C
  C224     1.0000 0.83060  0.35690  0.30700  Biso   1.000  C
  H124     1.0000 0.84540  0.35020  0.28940  Biso   1.000  H
  C225     1.0000 0.82310  0.40280  0.30857  Biso   1.000  C
  H125     1.0000 0.83280  0.42730  0.29200  Biso   1.000  H
  C226     1.0000 0.80150  0.41270  0.33430  Biso   1.000  C
  H126     1.0000 0.79640  0.44400  0.33540  Biso   1.000  H
  C227     1.0000 0.78730  0.37670  0.35848  Biso   1.000  C
  C228     1.0000 0.81140  0.37970  0.67910  Biso   1.000  C
  H127     1.0000 0.81220  0.35920  0.69590  Biso   1.000  H
  C229     1.0000 0.79640  0.25490  0.36460  Biso   1.000  C
  C230     1.0000 0.82660  0.09410  0.35670  Biso   1.000  C
  H128     1.0000 0.85740  0.09550  0.36810  Biso   1.000  H
  H129     1.0000 0.84020  0.11200  0.33730  Biso   1.000  H
  H130     1.0000 0.79770  0.05520  0.35380  Biso   1.000  H
  Fe16     1.0000 0.76704  0.45275  0.57075  Biso   1.000  Fe
  Fe17     1.0000 0.72130  0.42143  0.49388  Biso   1.000  Fe
  Fe18     1.0000 0.72305  0.46091  0.41581  Biso   1.000  Fe
  O66      1.0000 0.73700  0.36010  0.49409  Biso   1.000  O
  O67      1.0000 0.71700  0.49190  0.48903  Biso   1.000  O
  O68      1.0000 0.62560  0.37850  0.57830  Biso   1.000  O
  O69      1.0000 0.71520  0.42720  0.53741  Biso   1.000  O
  O70      1.0000 0.83150  0.47020  0.54345  Biso   1.000  O
  O71      1.0000 0.70460  0.43690  0.60125  Biso   1.000  O
  O72      1.0000 0.80470  0.47820  0.49733  Biso   1.000  O
  O73      1.0000 0.78770  0.53040  0.56821  Biso   1.000  O
  O74      1.0000 0.73250  0.42310  0.44968  Biso   1.000  O
  O75      1.0000 0.68990  0.49570  0.44231  Biso   1.000  O
  O76      1.0000 0.56920  0.32760  0.38628  Biso   1.000  O
  N41      1.0000 0.81530  0.47390  0.60829  Biso   1.000  N
  O77      1.0000 0.79280  0.52850  0.41947  Biso   1.000  O
  O78      1.0000 0.64700  0.39440  0.40780  Biso   1.000  O
  N42      1.0000 0.86400  0.57090  0.46420  Biso   1.000  N
  H131     1.0000 0.83260  0.54030  0.46040  Biso   1.000  H
  N43      1.0000 0.83420  0.67950  0.52395  Biso   1.000  N
  N44      1.0000 0.78290  0.58630  0.52189  Biso   1.000  N
  H132     1.0000 0.76870  0.55140  0.52740  Biso   1.000  H
  C231     1.0000 0.82980  0.57630  0.57970  Biso   1.000  C
  N45      1.0000 0.85990  0.52100  0.64897  Biso   1.000  N
  C232     1.0000 0.84550  0.52450  0.62045  Biso   1.000  C
  C233     1.0000 0.84540  0.62750  0.56585  Biso   1.000  C
  C234     1.0000 0.83850  0.49550  0.51856  Biso   1.000  C
  C235     1.0000 0.81700  0.57600  0.40502  Biso   1.000  C
  C236     1.0000 0.71250  0.51800  0.46726  Biso   1.000  C
  C237     1.0000 0.85870  0.57630  0.60596  Biso   1.000  C
  C238     1.0000 0.65220  0.40650  0.60131  Biso   1.000  C
  N46      1.0000 0.93710  0.65670  0.45807  Biso   1.000  N
  C239     1.0000 0.93060  0.57450  0.53630  Biso   1.000  C
  H133     1.0000 0.92820  0.55540  0.55430  Biso   1.000  H
  C240     1.0000 0.89540  0.58130  0.48909  Biso   1.000  C
  C241     1.0000 0.73970  0.57950  0.47002  Biso   1.000  C
  N47      1.0000 0.71110  0.49430  0.37734  Biso   1.000  N
  C242     1.0000 0.91660  0.67720  0.60300  Biso   1.000  C
  C243     1.0000 0.79540  0.58470  0.37800  Biso   1.000  C
  C244     1.0000 0.89420  0.67030  0.40060  Biso   1.000  C
  H134     1.0000 0.92770  0.70000  0.40840  Biso   1.000  H
  C245     1.0000 0.81980  0.63130  0.53760  Biso   1.000  C
  C246     1.0000 0.90130  0.62640  0.61660  Biso   1.000  C
  H135     1.0000 0.92080  0.62610  0.63400  Biso   1.000  H
  C247     1.0000 0.62150  0.40360  0.62869  Biso   1.000  C
  C248     1.0000 0.88950  0.55020  0.51490  Biso   1.000  C
  C249     1.0000 0.88780  0.67600  0.57780  Biso   1.000  C
  H136     1.0000 0.89750  0.71020  0.56820  Biso   1.000  H
  C250     1.0000 0.74020  0.61310  0.44760  Biso   1.000  C
  H137     1.0000 0.71880  0.59650  0.43010  Biso   1.000  H
  C251     1.0000 0.77170  0.60540  0.49530  Biso   1.000  C
  C252     1.0000 0.80340  0.69630  0.47380  Biso   1.000  C
  H138     1.0000 0.82530  0.73570  0.47460  Biso   1.000  H
  C253     1.0000 0.86680  0.62160  0.41684  Biso   1.000  C
  C254     1.0000 0.89040  0.61720  0.44580  Biso   1.000  C
  C255     1.0000 0.96390  0.73190  0.61570  Biso   1.000  C
  H139     1.0000 0.95310  0.73870  0.63540  Biso   1.000  H
  H140     1.0000 0.97100  0.76260  0.60230  Biso   1.000  H
  H141     1.0000 0.99760  0.72920  0.61760  Biso   1.000  H
  C256     1.0000 0.80940  0.43590  0.62977  Biso   1.000  C
  C257     1.0000 0.94190  0.63560  0.48490  Biso   1.000  C
  C258     1.0000 0.80400  0.66350  0.49790  Biso   1.000  C
  C259     1.0000 0.64880  0.43200  0.65440  Biso   1.000  C
  H142     1.0000 0.67350  0.41750  0.66050  Biso   1.000  H
  H143     1.0000 0.67330  0.47140  0.64870  Biso   1.000  H
  C260     1.0000 0.97650  0.62860  0.53100  Biso   1.000  C
  H144     1.0000 0.00470  0.64470  0.54580  Biso   1.000  H
  C261     1.0000 0.82600  0.63550  0.36310  Biso   1.000  C
  H145     1.0000 0.81200  0.64100  0.34480  Biso   1.000  H
  C262     1.0000 0.77100  0.67070  0.44940  Biso   1.000  C
  H146     1.0000 0.76950  0.69260  0.43360  Biso   1.000  H
  N48      1.0000 0.72760  0.54380  0.33730  Biso   1.000  N
  H147     1.0000 0.74450  0.57210  0.32500  Biso   1.000  H
  C263     1.0000 0.98240  0.65810  0.50640  Biso   1.000  C
  H148     1.0000 0.01410  0.69410  0.50380  Biso   1.000  H
  C264     1.0000 0.61300  0.37580  0.38640  Biso   1.000  C
  C265     1.0000 0.87540  0.67760  0.37400  Biso   1.000  C
  C266     1.0000 0.83700  0.46410  0.65560  Biso   1.000  C
  C267     1.0000 0.83880  0.43660  0.68100  Biso   1.000  C
  H149     1.0000 0.85780  0.45590  0.69860  Biso   1.000  H
  C268     1.0000 0.66910  0.46390  0.35692  Biso   1.000  C
  C269     1.0000 0.67900  0.49540  0.33120  Biso   1.000  C
  C270     1.0000 0.64310  0.47370  0.30700  Biso   1.000  C
  H150     1.0000 0.64980  0.49520  0.28940  Biso   1.000  H
  C271     1.0000 0.59720  0.42030  0.30857  Biso   1.000  C
  H151     1.0000 0.57270  0.40550  0.29200  Biso   1.000  H
  C272     1.0000 0.58730  0.38880  0.33430  Biso   1.000  C
  H152     1.0000 0.55600  0.35240  0.33540  Biso   1.000  H
  C273     1.0000 0.62330  0.41060  0.35848  Biso   1.000  C
  C274     1.0000 0.62030  0.43170  0.67910  Biso   1.000  C
  H153     1.0000 0.64080  0.45300  0.69590  Biso   1.000  H
  C275     1.0000 0.74510  0.54150  0.36460  Biso   1.000  C
  C276     1.0000 0.90590  0.73250  0.35670  Biso   1.000  C
  H154     1.0000 0.90450  0.76190  0.36810  Biso   1.000  H
  H155     1.0000 0.88800  0.72820  0.33730  Biso   1.000  H
  H156     1.0000 0.94480  0.74250  0.35380  Biso   1.000  H
  Fe19     1.0000 0.68571  0.45275  0.92925  Biso   1.000  Fe
  Fe20     1.0000 0.70013  0.42143  0.00612  Biso   1.000  Fe
  Fe21     1.0000 0.73786  0.46091  0.08419  Biso   1.000  Fe
  O79      1.0000 0.62310  0.36010  0.00591  Biso   1.000  O
  O80      1.0000 0.77490  0.49190  0.01097  Biso   1.000  O
  O81      1.0000 0.75290  0.37850  0.92170  Biso   1.000  O
  O82      1.0000 0.71200  0.42720  0.96259  Biso   1.000  O
  O83      1.0000 0.63870  0.47020  0.95655  Biso   1.000  O
  O84      1.0000 0.73230  0.43690  0.89875  Biso   1.000  O
  O85      1.0000 0.67350  0.47820  0.00267  Biso   1.000  O
  O86      1.0000 0.74270  0.53040  0.93179  Biso   1.000  O
  O87      1.0000 0.69060  0.42310  0.05032  Biso   1.000  O
  O88      1.0000 0.80580  0.49570  0.05769  Biso   1.000  O
  O89      1.0000 0.75840  0.32760  0.11372  Biso   1.000  O
  N49      1.0000 0.65860  0.47390  0.89171  Biso   1.000  N
  O90      1.0000 0.73570  0.52850  0.08053  Biso   1.000  O
  O91      1.0000 0.74740  0.39440  0.09220  Biso   1.000  O
  N50      1.0000 0.70690  0.57090  0.03580  Biso   1.000  N
  H157     1.0000 0.70770  0.54030  0.03960  Biso   1.000  H
  N51      1.0000 0.84530  0.67950  0.97605  Biso   1.000  N
  N52      1.0000 0.80340  0.58630  0.97811  Biso   1.000  N
  H158     1.0000 0.78270  0.55140  0.97260  Biso   1.000  H
  C277     1.0000 0.74650  0.57630  0.92030  Biso   1.000  C
  N53      1.0000 0.66110  0.52100  0.85103  Biso   1.000  N
  C278     1.0000 0.67900  0.52450  0.87955  Biso   1.000  C
  C279     1.0000 0.78210  0.62750  0.93415  Biso   1.000  C
  C280     1.0000 0.65700  0.49550  0.98144  Biso   1.000  C
  C281     1.0000 0.75900  0.57600  0.09498  Biso   1.000  C
  C282     1.0000 0.80550  0.51800  0.03274  Biso   1.000  C
  C283     1.0000 0.71760  0.57630  0.89404  Biso   1.000  C
  C284     1.0000 0.75430  0.40650  0.89869  Biso   1.000  C
  N54      1.0000 0.71960  0.65670  0.04193  Biso   1.000  N
  C285     1.0000 0.64390  0.57450  0.96370  Biso   1.000  C
  H159     1.0000 0.62720  0.55540  0.94570  Biso   1.000  H
  C286     1.0000 0.68590  0.58130  0.01091  Biso   1.000  C
  C287     1.0000 0.83980  0.57950  0.02998  Biso   1.000  C
  N55      1.0000 0.78320  0.49430  0.12266  Biso   1.000  N
  C288     1.0000 0.76060  0.67720  0.89700  Biso   1.000  C
  C289     1.0000 0.78930  0.58470  0.12200  Biso   1.000  C
  C290     1.0000 0.77610  0.67030  0.09940  Biso   1.000  C
  H160     1.0000 0.77230  0.70000  0.09160  Biso   1.000  H
  C291     1.0000 0.81150  0.63130  0.96240  Biso   1.000  C
  C292     1.0000 0.72510  0.62640  0.88340  Biso   1.000  C
  H161     1.0000 0.70530  0.62610  0.86600  Biso   1.000  H
  C293     1.0000 0.78210  0.40360  0.87131  Biso   1.000  C
  C294     1.0000 0.66070  0.55020  0.98510  Biso   1.000  C
  C295     1.0000 0.78820  0.67600  0.92220  Biso   1.000  C
  H162     1.0000 0.81270  0.71020  0.93180  Biso   1.000  H
  C296     1.0000 0.87290  0.61310  0.05240  Biso   1.000  C
  H163     1.0000 0.87770  0.59650  0.06990  Biso   1.000  H
  C297     1.0000 0.83370  0.60540  0.00470  Biso   1.000  C
  C298     1.0000 0.89290  0.69630  0.02620  Biso   1.000  C
  H164     1.0000 0.91040  0.73570  0.02540  Biso   1.000  H
  C299     1.0000 0.75480  0.62160  0.08316  Biso   1.000  C
  C300     1.0000 0.72680  0.61720  0.05420  Biso   1.000  C
  C301     1.0000 0.76800  0.73190  0.88430  Biso   1.000  C
  H165     1.0000 0.78560  0.73870  0.86460  Biso   1.000  H
  H166     1.0000 0.79160  0.76260  0.89770  Biso   1.000  H
  H167     1.0000 0.73160  0.72920  0.88240  Biso   1.000  H
  C302     1.0000 0.62650  0.43590  0.87023  Biso   1.000  C
  C303     1.0000 0.69370  0.63560  0.01510  Biso   1.000  C
  C304     1.0000 0.85950  0.66350  0.00210  Biso   1.000  C
  C305     1.0000 0.78320  0.43200  0.84560  Biso   1.000  C
  H168     1.0000 0.74400  0.41750  0.83950  Biso   1.000  H
  H169     1.0000 0.79810  0.47140  0.85130  Biso   1.000  H
  C306     1.0000 0.65210  0.62860  0.96900  Biso   1.000  C
  H170     1.0000 0.64000  0.64470  0.95420  Biso   1.000  H
  C307     1.0000 0.80950  0.63550  0.13690  Biso   1.000  C
  H171     1.0000 0.82900  0.64100  0.15520  Biso   1.000  H
  C308     1.0000 0.89970  0.67070  0.05060  Biso   1.000  C
  H172     1.0000 0.92310  0.69260  0.06640  Biso   1.000  H
  N56      1.0000 0.81620  0.54380  0.16270  Biso   1.000  N
  H173     1.0000 0.82760  0.57210  0.17500  Biso   1.000  H
  C309     1.0000 0.67570  0.65810  0.99360  Biso   1.000  C
  H174     1.0000 0.68000  0.69410  0.99620  Biso   1.000  H
  C310     1.0000 0.76280  0.37580  0.11360  Biso   1.000  C
  C311     1.0000 0.80220  0.67760  0.12600  Biso   1.000  C
  C312     1.0000 0.62710  0.46410  0.84440  Biso   1.000  C
  C313     1.0000 0.59780  0.43660  0.81900  Biso   1.000  C
  H175     1.0000 0.59810  0.45590  0.80140  Biso   1.000  H
  C314     1.0000 0.79480  0.46390  0.14308  Biso   1.000  C
  C315     1.0000 0.81640  0.49540  0.16880  Biso   1.000  C
  C316     1.0000 0.83060  0.47370  0.19300  Biso   1.000  C
  H176     1.0000 0.84540  0.49520  0.21060  Biso   1.000  H
  C317     1.0000 0.82310  0.42030  0.19143  Biso   1.000  C
  H177     1.0000 0.83280  0.40550  0.20800  Biso   1.000  H
  C318     1.0000 0.80150  0.38880  0.16570  Biso   1.000  C
  H178     1.0000 0.79640  0.35240  0.16460  Biso   1.000  H
  C319     1.0000 0.78730  0.41060  0.14152  Biso   1.000  C
  C320     1.0000 0.81140  0.43170  0.82090  Biso   1.000  C
  H179     1.0000 0.81220  0.45300  0.80410  Biso   1.000  H
  C321     1.0000 0.79640  0.54150  0.13540  Biso   1.000  C
  C322     1.0000 0.82660  0.73250  0.14330  Biso   1.000  C
  H180     1.0000 0.85740  0.76190  0.13190  Biso   1.000  H
  H181     1.0000 0.84020  0.72820  0.16270  Biso   1.000  H
  H182     1.0000 0.79770  0.74250  0.14620  Biso   1.000  H
  Fe22     1.0000 0.76704  0.31429  0.92925  Biso   1.000  Fe
  Fe23     1.0000 0.72130  0.29987  0.00612  Biso   1.000  Fe
  Fe24     1.0000 0.72305  0.26214  0.08419  Biso   1.000  Fe
  O92      1.0000 0.73700  0.37690  0.00591  Biso   1.000  O
  O93      1.0000 0.71700  0.22510  0.01097  Biso   1.000  O
  O94      1.0000 0.62560  0.24710  0.92170  Biso   1.000  O
  O95      1.0000 0.71520  0.28800  0.96259  Biso   1.000  O
  O96      1.0000 0.83150  0.36130  0.95655  Biso   1.000  O
  O97      1.0000 0.70460  0.26770  0.89875  Biso   1.000  O
  O98      1.0000 0.80470  0.32650  0.00267  Biso   1.000  O
  O99      1.0000 0.78770  0.25730  0.93179  Biso   1.000  O
  O100     1.0000 0.73250  0.30940  0.05032  Biso   1.000  O
  O101     1.0000 0.68990  0.19420  0.05769  Biso   1.000  O
  O102     1.0000 0.56920  0.24160  0.11372  Biso   1.000  O
  N57      1.0000 0.81530  0.34140  0.89171  Biso   1.000  N
  O103     1.0000 0.79280  0.26430  0.08053  Biso   1.000  O
  O104     1.0000 0.64700  0.25260  0.09220  Biso   1.000  O
  N58      1.0000 0.86400  0.29310  0.03580  Biso   1.000  N
  H183     1.0000 0.83260  0.29230  0.03960  Biso   1.000  H
  N59      1.0000 0.83420  0.15470  0.97605  Biso   1.000  N
  N60      1.0000 0.78290  0.19660  0.97811  Biso   1.000  N
  H184     1.0000 0.76870  0.21730  0.97260  Biso   1.000  H
  C323     1.0000 0.82980  0.25350  0.92030  Biso   1.000  C
  N61      1.0000 0.85990  0.33890  0.85103  Biso   1.000  N
  C324     1.0000 0.84550  0.32100  0.87955  Biso   1.000  C
  C325     1.0000 0.84540  0.21790  0.93415  Biso   1.000  C
  C326     1.0000 0.83850  0.34300  0.98144  Biso   1.000  C
  C327     1.0000 0.81700  0.24100  0.09498  Biso   1.000  C
  C328     1.0000 0.71250  0.19450  0.03274  Biso   1.000  C
  C329     1.0000 0.85870  0.28240  0.89404  Biso   1.000  C
  C330     1.0000 0.65220  0.24570  0.89869  Biso   1.000  C
  N62      1.0000 0.93710  0.28040  0.04193  Biso   1.000  N
  C331     1.0000 0.93060  0.35610  0.96370  Biso   1.000  C
  H185     1.0000 0.92820  0.37280  0.94570  Biso   1.000  H
  C332     1.0000 0.89540  0.31410  0.01091  Biso   1.000  C
  C333     1.0000 0.73970  0.16020  0.02998  Biso   1.000  C
  N63      1.0000 0.71110  0.21680  0.12266  Biso   1.000  N
  C334     1.0000 0.91660  0.23940  0.89700  Biso   1.000  C
  C335     1.0000 0.79540  0.21070  0.12200  Biso   1.000  C
  C336     1.0000 0.89420  0.22390  0.09940  Biso   1.000  C
  H186     1.0000 0.92770  0.22770  0.09160  Biso   1.000  H
  C337     1.0000 0.81980  0.18850  0.96240  Biso   1.000  C
  C338     1.0000 0.90130  0.27490  0.88340  Biso   1.000  C
  H187     1.0000 0.92080  0.29470  0.86600  Biso   1.000  H
  C339     1.0000 0.62150  0.21790  0.87131  Biso   1.000  C
  C340     1.0000 0.88950  0.33930  0.98510  Biso   1.000  C
  C341     1.0000 0.88780  0.21180  0.92220  Biso   1.000  C
  H188     1.0000 0.89750  0.18730  0.93180  Biso   1.000  H
  C342     1.0000 0.74020  0.12710  0.05240  Biso   1.000  C
  H189     1.0000 0.71880  0.12230  0.06990  Biso   1.000  H
  C343     1.0000 0.77170  0.16630  0.00470  Biso   1.000  C
  C344     1.0000 0.80340  0.10710  0.02620  Biso   1.000  C
  H190     1.0000 0.82530  0.08960  0.02540  Biso   1.000  H
  C345     1.0000 0.86680  0.24520  0.08316  Biso   1.000  C
  C346     1.0000 0.89040  0.27320  0.05420  Biso   1.000  C
  C347     1.0000 0.96390  0.23200  0.88430  Biso   1.000  C
  H191     1.0000 0.95310  0.21440  0.86460  Biso   1.000  H
  H192     1.0000 0.97100  0.20840  0.89770  Biso   1.000  H
  H193     1.0000 0.99760  0.26840  0.88240  Biso   1.000  H
  C348     1.0000 0.80940  0.37350  0.87023  Biso   1.000  C
  C349     1.0000 0.94190  0.30630  0.01510  Biso   1.000  C
  C350     1.0000 0.80400  0.14050  0.00210  Biso   1.000  C
  C351     1.0000 0.64880  0.21680  0.84560  Biso   1.000  C
  H194     1.0000 0.67350  0.25600  0.83950  Biso   1.000  H
  H195     1.0000 0.67330  0.20190  0.85130  Biso   1.000  H
  C352     1.0000 0.97650  0.34790  0.96900  Biso   1.000  C
  H196     1.0000 0.00470  0.36000  0.95420  Biso   1.000  H
  C353     1.0000 0.82600  0.19050  0.13690  Biso   1.000  C
  H197     1.0000 0.81200  0.17100  0.15520  Biso   1.000  H
  C354     1.0000 0.77100  0.10030  0.05060  Biso   1.000  C
  H198     1.0000 0.76950  0.07690  0.06640  Biso   1.000  H
  N64      1.0000 0.72760  0.18380  0.16270  Biso   1.000  N
  H199     1.0000 0.74450  0.17240  0.17500  Biso   1.000  H
  C355     1.0000 0.98240  0.32430  0.99360  Biso   1.000  C
  H200     1.0000 0.01410  0.32000  0.99620  Biso   1.000  H
  C356     1.0000 0.61300  0.23720  0.11360  Biso   1.000  C
  C357     1.0000 0.87540  0.19780  0.12600  Biso   1.000  C
  C358     1.0000 0.83700  0.37290  0.84440  Biso   1.000  C
  C359     1.0000 0.83880  0.40220  0.81900  Biso   1.000  C
  H201     1.0000 0.85780  0.40190  0.80140  Biso   1.000  H
  C360     1.0000 0.66910  0.20520  0.14308  Biso   1.000  C
  C361     1.0000 0.67900  0.18360  0.16880  Biso   1.000  C
  C362     1.0000 0.64310  0.16940  0.19300  Biso   1.000  C
  H202     1.0000 0.64980  0.15460  0.21060  Biso   1.000  H
  C363     1.0000 0.59720  0.17690  0.19143  Biso   1.000  C
  H203     1.0000 0.57270  0.16720  0.20800  Biso   1.000  H
  C364     1.0000 0.58730  0.19850  0.16570  Biso   1.000  C
  H204     1.0000 0.55600  0.20360  0.16460  Biso   1.000  H
  C365     1.0000 0.62330  0.21270  0.14152  Biso   1.000  C
  C366     1.0000 0.62030  0.18860  0.82090  Biso   1.000  C
  H205     1.0000 0.64080  0.18780  0.80410  Biso   1.000  H
  C367     1.0000 0.74510  0.20360  0.13540  Biso   1.000  C
  C368     1.0000 0.90590  0.17340  0.14330  Biso   1.000  C
  H206     1.0000 0.90450  0.14260  0.13190  Biso   1.000  H
  H207     1.0000 0.88800  0.15980  0.16270  Biso   1.000  H
  H208     1.0000 0.94480  0.20230  0.14620  Biso   1.000  H
  Fe25     1.0000 0.54725  0.23296  0.92925  Biso   1.000  Fe
  Fe26     1.0000 0.57857  0.27870  0.00612  Biso   1.000  Fe
  Fe27     1.0000 0.53909  0.27695  0.08419  Biso   1.000  Fe
  O105     1.0000 0.63990  0.26300  0.00591  Biso   1.000  O
  O106     1.0000 0.50810  0.28300  0.01097  Biso   1.000  O
  O107     1.0000 0.62150  0.37440  0.92170  Biso   1.000  O
  O108     1.0000 0.57280  0.28480  0.96259  Biso   1.000  O
  O109     1.0000 0.52980  0.16850  0.95655  Biso   1.000  O
  O110     1.0000 0.56310  0.29540  0.89875  Biso   1.000  O
  O111     1.0000 0.52180  0.19530  0.00267  Biso   1.000  O
  O112     1.0000 0.46960  0.21230  0.93179  Biso   1.000  O
  O113     1.0000 0.57690  0.26750  0.05032  Biso   1.000  O
  O114     1.0000 0.50430  0.31010  0.05769  Biso   1.000  O
  O115     1.0000 0.67240  0.43080  0.11372  Biso   1.000  O
  N65      1.0000 0.52610  0.18470  0.89171  Biso   1.000  N
  O116     1.0000 0.47150  0.20720  0.08053  Biso   1.000  O
  O117     1.0000 0.60560  0.35300  0.09220  Biso   1.000  O
  N66      1.0000 0.42910  0.13600  0.03580  Biso   1.000  N
  H209     1.0000 0.45970  0.16740  0.03960  Biso   1.000  H
  N67      1.0000 0.32050  0.16580  0.97605  Biso   1.000  N
  N68      1.0000 0.41370  0.21710  0.97811  Biso   1.000  N
  H210     1.0000 0.44860  0.23130  0.97260  Biso   1.000  H
  C369     1.0000 0.42370  0.17020  0.92030  Biso   1.000  C
  N69      1.0000 0.47900  0.14010  0.85103  Biso   1.000  N
  C370     1.0000 0.47550  0.15450  0.87955  Biso   1.000  C
  C371     1.0000 0.37250  0.15460  0.93415  Biso   1.000  C
  C372     1.0000 0.50450  0.16150  0.98144  Biso   1.000  C
  C373     1.0000 0.42400  0.18300  0.09498  Biso   1.000  C
  C374     1.0000 0.48200  0.28750  0.03274  Biso   1.000  C
  C375     1.0000 0.42370  0.14130  0.89404  Biso   1.000  C
  C376     1.0000 0.59350  0.34780  0.89869  Biso   1.000  C
  N70      1.0000 0.34330  0.06290  0.04193  Biso   1.000  N
  C377     1.0000 0.42550  0.06940  0.96370  Biso   1.000  C
  H211     1.0000 0.44460  0.07180  0.94570  Biso   1.000  H
  C378     1.0000 0.41870  0.10460  0.01091  Biso   1.000  C
  C379     1.0000 0.42050  0.26030  0.02998  Biso   1.000  C
  N71      1.0000 0.50570  0.28890  0.12266  Biso   1.000  N
  C380     1.0000 0.32280  0.08340  0.89700  Biso   1.000  C
  C381     1.0000 0.41530  0.20460  0.12200  Biso   1.000  C
  C382     1.0000 0.32970  0.10580  0.09940  Biso   1.000  C
  H212     1.0000 0.30000  0.07230  0.09160  Biso   1.000  H
  C383     1.0000 0.36870  0.18020  0.96240  Biso   1.000  C
  C384     1.0000 0.37360  0.09870  0.88340  Biso   1.000  C
  H213     1.0000 0.37390  0.07920  0.86600  Biso   1.000  H
  C385     1.0000 0.59640  0.37850  0.87131  Biso   1.000  C
  C386     1.0000 0.44980  0.11050  0.98510  Biso   1.000  C
  C387     1.0000 0.32400  0.11220  0.92220  Biso   1.000  C
  H214     1.0000 0.28980  0.10250  0.93180  Biso   1.000  H
  C388     1.0000 0.38690  0.25980  0.05240  Biso   1.000  C
  H215     1.0000 0.40350  0.28120  0.06990  Biso   1.000  H
  C389     1.0000 0.39460  0.22830  0.00470  Biso   1.000  C
  C390     1.0000 0.30370  0.19660  0.02620  Biso   1.000  C
  H216     1.0000 0.26430  0.17470  0.02540  Biso   1.000  H
  C391     1.0000 0.37840  0.13320  0.08316  Biso   1.000  C
  C392     1.0000 0.38280  0.10960  0.05420  Biso   1.000  C
  C393     1.0000 0.26810  0.03610  0.88430  Biso   1.000  C
  H217     1.0000 0.26130  0.04690  0.86460  Biso   1.000  H
  H218     1.0000 0.23740  0.02900  0.89770  Biso   1.000  H
  H219     1.0000 0.27080  0.00240  0.88240  Biso   1.000  H
  C394     1.0000 0.56410  0.19060  0.87023  Biso   1.000  C
  C395     1.0000 0.36440  0.05810  0.01510  Biso   1.000  C
  C396     1.0000 0.33650  0.19600  0.00210  Biso   1.000  C
  C397     1.0000 0.56800  0.35120  0.84560  Biso   1.000  C
  H220     1.0000 0.58250  0.32650  0.83950  Biso   1.000  H
  H221     1.0000 0.52860  0.32670  0.85130  Biso   1.000  H
  C398     1.0000 0.37140  0.02350  0.96900  Biso   1.000  C
  H222     1.0000 0.35530  0.99530  0.95420  Biso   1.000  H
  C399     1.0000 0.36450  0.17400  0.13690  Biso   1.000  C
  H223     1.0000 0.35900  0.18800  0.15520  Biso   1.000  H
  C400     1.0000 0.32930  0.22900  0.05060  Biso   1.000  C
  H224     1.0000 0.30740  0.23050  0.06640  Biso   1.000  H
  N72      1.0000 0.45620  0.27240  0.16270  Biso   1.000  N
  H225     1.0000 0.42790  0.25550  0.17500  Biso   1.000  H
  C401     1.0000 0.34190  0.01760  0.99360  Biso   1.000  C
  H226     1.0000 0.30590  0.98590  0.99620  Biso   1.000  H
  C402     1.0000 0.62420  0.38700  0.11360  Biso   1.000  C
  C403     1.0000 0.32240  0.12460  0.12600  Biso   1.000  C
  C404     1.0000 0.53590  0.16300  0.84440  Biso   1.000  C
  C405     1.0000 0.56340  0.16120  0.81900  Biso   1.000  C
  H227     1.0000 0.54410  0.14220  0.80140  Biso   1.000  H
  C406     1.0000 0.53610  0.33090  0.14308  Biso   1.000  C
  C407     1.0000 0.50460  0.32100  0.16880  Biso   1.000  C
  C408     1.0000 0.52630  0.35690  0.19300  Biso   1.000  C
  H228     1.0000 0.50480  0.35020  0.21060  Biso   1.000  H
  C409     1.0000 0.57970  0.40280  0.19143  Biso   1.000  C
  H229     1.0000 0.59450  0.42730  0.20800  Biso   1.000  H
  C410     1.0000 0.61120  0.41270  0.16570  Biso   1.000  C
  H230     1.0000 0.64760  0.44400  0.16460  Biso   1.000  H
  C411     1.0000 0.58940  0.37670  0.14152  Biso   1.000  C
  C412     1.0000 0.56830  0.37970  0.82090  Biso   1.000  C
  H231     1.0000 0.54700  0.35920  0.80410  Biso   1.000  H
  C413     1.0000 0.45850  0.25490  0.13540  Biso   1.000  C
  C414     1.0000 0.26750  0.09410  0.14330  Biso   1.000  C
  H232     1.0000 0.23810  0.09550  0.13190  Biso   1.000  H
  H233     1.0000 0.27180  0.11200  0.16270  Biso   1.000  H
  H234     1.0000 0.25750  0.05520  0.14620  Biso   1.000  H
  Fe28     1.0000 0.87364  0.95788  0.32764  Biso   1.000  Fe
  O118     1.0000 0.84830  0.00120  0.30157  Biso   1.000  O
  O119     1.0000 0.79960  0.89360  0.32457  Biso   1.000  O
  O120     1.0000 0.89820  0.91740  0.35668  Biso   1.000  O
  O121     1.0000 0.96960  0.91670  0.33515  Biso   1.000  O
  O122     1.0000 0.84590  0.97060  0.25499  Biso   1.000  O
  N73      1.0000 0.74960  0.83050  0.27695  Biso   1.000  N
  H235     1.0000 0.78310  0.85790  0.28140  Biso   1.000  H
  C415     1.0000 0.75060  0.88240  0.33556  Biso   1.000  C
  N74      1.0000 0.65890  0.77030  0.28149  Biso   1.000  N
  C416     1.0000 0.94180  0.87640  0.38316  Biso   1.000  C
  C417     1.0000 0.79310  0.95280  0.37617  Biso   1.000  C
  C418     1.0000 0.74440  0.90800  0.36099  Biso   1.000  C
  C419     1.0000 0.98160  0.85940  0.38456  Biso   1.000  C
  C420     1.0000 0.82430  0.98150  0.27713  Biso   1.000  C
  C421     1.0000 0.73550  0.79830  0.25205  Biso   1.000  C
  C422     1.0000 0.93770  0.90590  0.35629  Biso   1.000  C
  C423     1.0000 0.98220  0.82720  0.40879  Biso   1.000  C
  C424     1.0000 0.76480  0.96580  0.27328  Biso   1.000  C
  C425     1.0000 0.69160  0.89400  0.37118  Biso   1.000  C
  H236     1.0000 0.68830  0.91230  0.38830  Biso   1.000  H
  C426     1.0000 0.70110  0.84030  0.32116  Biso   1.000  C
  C427     1.0000 0.67870  0.76050  0.25505  Biso   1.000  C
  C428     1.0000 0.90490  0.86150  0.40646  Biso   1.000  C
  H237     1.0000 0.87820  0.87330  0.40610  Biso   1.000  H
  C429     1.0000 0.64960  0.82840  0.33259  Biso   1.000  C
  H238     1.0000 0.61700  0.80090  0.32280  Biso   1.000  H
  C430     1.0000 0.70300  0.81310  0.29378  Biso   1.000  C
  C431     1.0000 0.73770  0.97800  0.29520  Biso   1.000  C
  H239     1.0000 0.75740  0.99900  0.31220  Biso   1.000  H
  C432     1.0000 0.64340  0.85410  0.35703  Biso   1.000  C
  C433     1.0000 0.94490  0.81310  0.43150  Biso   1.000  C
  H240     1.0000 0.94580  0.79190  0.44790  Biso   1.000  H
  C434     1.0000 0.68020  0.95890  0.29210  Biso   1.000  C
  H241     1.0000 0.66160  0.96680  0.30740  Biso   1.000  H
  C435     1.0000 0.58670  0.84130  0.36800  Biso   1.000  C
  H242     1.0000 0.59000  0.85620  0.38820  Biso   1.000  H
  H243     1.0000 0.57170  0.85850  0.35460  Biso   1.000  H
  H244     1.0000 0.56160  0.80100  0.36820  Biso   1.000  H
  C436     1.0000 0.90500  0.83020  0.43030  Biso   1.000  C
  H245     1.0000 0.87840  0.82020  0.44580  Biso   1.000  H
  C437     1.0000 0.64990  0.92860  0.26700  Biso   1.000  C
  H246     1.0000 0.61120  0.91570  0.26520  Biso   1.000  H
  O123     1.0000 0.90506  0.94110  0.29380  Biso   1.000  O
  N75      1.0000 0.84480  0.97830  0.36443  Biso   1.000  N
  N76      1.0000 0.79220  0.97540  0.40250  Biso   1.000  N
  H247     1.0000 0.76270  0.96490  0.41380  Biso   1.000  H
  Fe29     1.0000 0.04212  0.91576  0.32764  Biso   1.000  Fe
  O124     1.0000 0.99880  0.84710  0.30157  Biso   1.000  O
  O125     1.0000 0.10640  0.90600  0.32457  Biso   1.000  O
  O126     1.0000 0.08260  0.98080  0.35668  Biso   1.000  O
  O127     1.0000 0.08330  0.05290  0.33515  Biso   1.000  O
  O128     1.0000 0.02940  0.87530  0.25499  Biso   1.000  O
  N77      1.0000 0.16950  0.91910  0.27695  Biso   1.000  N
  H248     1.0000 0.14210  0.92520  0.28140  Biso   1.000  H
  C438     1.0000 0.11760  0.86820  0.33556  Biso   1.000  C
  N78      1.0000 0.22970  0.88860  0.28149  Biso   1.000  N
  C439     1.0000 0.12360  0.06540  0.38316  Biso   1.000  C
  C440     1.0000 0.04720  0.84030  0.37617  Biso   1.000  C
  C441     1.0000 0.09200  0.83640  0.36099  Biso   1.000  C
  C442     1.0000 0.14060  0.12220  0.38456  Biso   1.000  C
  C443     1.0000 0.01850  0.84280  0.27713  Biso   1.000  C
  C444     1.0000 0.20170  0.93720  0.25205  Biso   1.000  C
  C445     1.0000 0.09410  0.03180  0.35629  Biso   1.000  C
  C446     1.0000 0.17280  0.15500  0.40879  Biso   1.000  C
  C447     1.0000 0.03420  0.79900  0.27328  Biso   1.000  C
  C448     1.0000 0.10600  0.79760  0.37118  Biso   1.000  C
  H249     1.0000 0.08770  0.77600  0.38830  Biso   1.000  H
  C449     1.0000 0.15970  0.86080  0.32116  Biso   1.000  C
  C450     1.0000 0.23950  0.91820  0.25505  Biso   1.000  C
  C451     1.0000 0.13850  0.04340  0.40646  Biso   1.000  C
  H250     1.0000 0.12670  0.00490  0.40610  Biso   1.000  H
  C452     1.0000 0.17160  0.82120  0.33259  Biso   1.000  C
  H251     1.0000 0.19910  0.81610  0.32280  Biso   1.000  H
  C453     1.0000 0.18690  0.88990  0.29378  Biso   1.000  C
  C454     1.0000 0.02200  0.75970  0.29520  Biso   1.000  C
  H252     1.0000 0.00100  0.75840  0.31220  Biso   1.000  H
  C455     1.0000 0.14590  0.78930  0.35703  Biso   1.000  C
  C456     1.0000 0.18690  0.13180  0.43150  Biso   1.000  C
  H253     1.0000 0.20810  0.15390  0.44790  Biso   1.000  H
  C457     1.0000 0.04110  0.72130  0.29210  Biso   1.000  C
  H254     1.0000 0.03320  0.69480  0.30740  Biso   1.000  H
  C458     1.0000 0.15870  0.74540  0.36800  Biso   1.000  C
  H255     1.0000 0.14380  0.73380  0.38820  Biso   1.000  H
  H256     1.0000 0.14150  0.71320  0.35460  Biso   1.000  H
  H257     1.0000 0.19900  0.76060  0.36820  Biso   1.000  H
  C459     1.0000 0.16980  0.07480  0.43030  Biso   1.000  C
  H258     1.0000 0.17980  0.05820  0.44580  Biso   1.000  H
  C460     1.0000 0.07140  0.72130  0.26700  Biso   1.000  C
  H259     1.0000 0.08430  0.69550  0.26520  Biso   1.000  H
  O129     1.0000 0.05890  0.96396  0.29380  Biso   1.000  O
  N79      1.0000 0.02170  0.86650  0.36443  Biso   1.000  N
  N80      1.0000 0.02460  0.81680  0.40250  Biso   1.000  N
  H260     1.0000 0.03510  0.79780  0.41380  Biso   1.000  H
  Fe30     1.0000 0.08424  0.12636  0.32764  Biso   1.000  Fe
  O130     1.0000 0.15290  0.15170  0.30157  Biso   1.000  O
  O131     1.0000 0.09400  0.20040  0.32457  Biso   1.000  O
  O132     1.0000 0.01920  0.10180  0.35668  Biso   1.000  O
  O133     1.0000 0.94710  0.03040  0.33515  Biso   1.000  O
  O134     1.0000 0.12470  0.15410  0.25499  Biso   1.000  O
  N81      1.0000 0.08090  0.25040  0.27695  Biso   1.000  N
  H261     1.0000 0.07480  0.21690  0.28140  Biso   1.000  H
  C461     1.0000 0.13180  0.24940  0.33556  Biso   1.000  C
  N82      1.0000 0.11140  0.34110  0.28149  Biso   1.000  N
  C462     1.0000 0.93460  0.05820  0.38316  Biso   1.000  C
  C463     1.0000 0.15970  0.20690  0.37617  Biso   1.000  C
  C464     1.0000 0.16360  0.25560  0.36099  Biso   1.000  C
  C465     1.0000 0.87780  0.01840  0.38456  Biso   1.000  C
  C466     1.0000 0.15720  0.17570  0.27713  Biso   1.000  C
  C467     1.0000 0.06280  0.26450  0.25205  Biso   1.000  C
  C468     1.0000 0.96820  0.06230  0.35629  Biso   1.000  C
  C469     1.0000 0.84500  0.01780  0.40879  Biso   1.000  C
  C470     1.0000 0.20100  0.23520  0.27328  Biso   1.000  C
  C471     1.0000 0.20240  0.30840  0.37118  Biso   1.000  C
  H262     1.0000 0.22400  0.31170  0.38830  Biso   1.000  H
  C472     1.0000 0.13920  0.29890  0.32116  Biso   1.000  C
  C473     1.0000 0.08180  0.32130  0.25505  Biso   1.000  C
  C474     1.0000 0.95660  0.09510  0.40646  Biso   1.000  C
  H263     1.0000 0.99510  0.12180  0.40610  Biso   1.000  H
  C475     1.0000 0.17880  0.35040  0.33259  Biso   1.000  C
  H264     1.0000 0.18390  0.38300  0.32280  Biso   1.000  H
  C476     1.0000 0.11010  0.29700  0.29378  Biso   1.000  C
  C477     1.0000 0.24030  0.26230  0.29520  Biso   1.000  C
  H265     1.0000 0.24160  0.24260  0.31220  Biso   1.000  H
  C478     1.0000 0.21070  0.35660  0.35703  Biso   1.000  C
  C479     1.0000 0.86820  0.05510  0.43150  Biso   1.000  C
  H266     1.0000 0.84610  0.05420  0.44790  Biso   1.000  H
  C480     1.0000 0.27870  0.31980  0.29210  Biso   1.000  C
  H267     1.0000 0.30520  0.33840  0.30740  Biso   1.000  H
  C481     1.0000 0.25460  0.41330  0.36800  Biso   1.000  C
  H268     1.0000 0.26620  0.41000  0.38820  Biso   1.000  H
  H269     1.0000 0.28680  0.42830  0.35460  Biso   1.000  H
  H270     1.0000 0.23940  0.43840  0.36820  Biso   1.000  H
  C482     1.0000 0.92520  0.09500  0.43030  Biso   1.000  C
  H271     1.0000 0.94180  0.12160  0.44580  Biso   1.000  H
  C483     1.0000 0.27870  0.35010  0.26700  Biso   1.000  C
  H272     1.0000 0.30450  0.38880  0.26520  Biso   1.000  H
  O135     1.0000 0.03604  0.09494  0.29380  Biso   1.000  O
  N83      1.0000 0.13350  0.15520  0.36443  Biso   1.000  N
  N84      1.0000 0.18320  0.20780  0.40250  Biso   1.000  N
  H273     1.0000 0.20220  0.23730  0.41380  Biso   1.000  H
  Fe31     1.0000 0.04212  0.12636  0.17236  Biso   1.000  Fe
  O136     1.0000 0.99880  0.15170  0.19843  Biso   1.000  O
  O137     1.0000 0.10640  0.20040  0.17543  Biso   1.000  O
  O138     1.0000 0.08260  0.10180  0.14332  Biso   1.000  O
  O139     1.0000 0.08330  0.03040  0.16485  Biso   1.000  O
  O140     1.0000 0.02940  0.15410  0.24501  Biso   1.000  O
  N85      1.0000 0.16950  0.25040  0.22305  Biso   1.000  N
  H274     1.0000 0.14210  0.21690  0.21860  Biso   1.000  H
  C484     1.0000 0.11760  0.24940  0.16444  Biso   1.000  C
  N86      1.0000 0.22970  0.34110  0.21851  Biso   1.000  N
  C485     1.0000 0.12360  0.05820  0.11684  Biso   1.000  C
  C486     1.0000 0.04720  0.20690  0.12383  Biso   1.000  C
  C487     1.0000 0.09200  0.25560  0.13901  Biso   1.000  C
  C488     1.0000 0.14060  0.01840  0.11544  Biso   1.000  C
  C489     1.0000 0.01850  0.17570  0.22287  Biso   1.000  C
  C490     1.0000 0.20170  0.26450  0.24795  Biso   1.000  C
  C491     1.0000 0.09410  0.06230  0.14371  Biso   1.000  C
  C492     1.0000 0.17280  0.01780  0.09121  Biso   1.000  C
  C493     1.0000 0.03420  0.23520  0.22672  Biso   1.000  C
  C494     1.0000 0.10600  0.30840  0.12882  Biso   1.000  C
  H275     1.0000 0.08770  0.31170  0.11170  Biso   1.000  H
  C495     1.0000 0.15970  0.29890  0.17884  Biso   1.000  C
  C496     1.0000 0.23950  0.32130  0.24495  Biso   1.000  C
  C497     1.0000 0.13850  0.09510  0.09354  Biso   1.000  C
  H276     1.0000 0.12670  0.12180  0.09390  Biso   1.000  H
  C498     1.0000 0.17160  0.35040  0.16741  Biso   1.000  C
  H277     1.0000 0.19910  0.38300  0.17720  Biso   1.000  H
  C499     1.0000 0.18690  0.29700  0.20622  Biso   1.000  C
  C500     1.0000 0.02200  0.26230  0.20480  Biso   1.000  C
  H278     1.0000 0.00100  0.24260  0.18780  Biso   1.000  H
  C501     1.0000 0.14590  0.35660  0.14297  Biso   1.000  C
  C502     1.0000 0.18690  0.05510  0.06850  Biso   1.000  C
  H279     1.0000 0.20810  0.05420  0.05210  Biso   1.000  H
  C503     1.0000 0.04110  0.31980  0.20790  Biso   1.000  C
  H280     1.0000 0.03320  0.33840  0.19260  Biso   1.000  H
  C504     1.0000 0.15870  0.41330  0.13200  Biso   1.000  C
  H281     1.0000 0.14380  0.41000  0.11180  Biso   1.000  H
  H282     1.0000 0.14150  0.42830  0.14540  Biso   1.000  H
  H283     1.0000 0.19900  0.43840  0.13180  Biso   1.000  H
  C505     1.0000 0.16980  0.09500  0.06970  Biso   1.000  C
  H284     1.0000 0.17980  0.12160  0.05420  Biso   1.000  H
  C506     1.0000 0.07140  0.35010  0.23300  Biso   1.000  C
  H285     1.0000 0.08430  0.38880  0.23480  Biso   1.000  H
  O141     1.0000 0.05890  0.09494  0.20620  Biso   1.000  O
  N87      1.0000 0.02170  0.15520  0.13557  Biso   1.000  N
  N88      1.0000 0.02460  0.20780  0.09750  Biso   1.000  N
  H286     1.0000 0.03510  0.23730  0.08620  Biso   1.000  H
  Fe32     1.0000 0.08424  0.95788  0.17236  Biso   1.000  Fe
  O142     1.0000 0.15290  0.00120  0.19843  Biso   1.000  O
  O143     1.0000 0.09400  0.89360  0.17543  Biso   1.000  O
  O144     1.0000 0.01920  0.91740  0.14332  Biso   1.000  O
  O145     1.0000 0.94710  0.91670  0.16485  Biso   1.000  O
  O146     1.0000 0.12470  0.97060  0.24501  Biso   1.000  O
  N89      1.0000 0.08090  0.83050  0.22305  Biso   1.000  N
  H287     1.0000 0.07480  0.85790  0.21860  Biso   1.000  H
  C507     1.0000 0.13180  0.88240  0.16444  Biso   1.000  C
  N90      1.0000 0.11140  0.77030  0.21851  Biso   1.000  N
  C508     1.0000 0.93460  0.87640  0.11684  Biso   1.000  C
  C509     1.0000 0.15970  0.95280  0.12383  Biso   1.000  C
  C510     1.0000 0.16360  0.90800  0.13901  Biso   1.000  C
  C511     1.0000 0.87780  0.85940  0.11544  Biso   1.000  C
  C512     1.0000 0.15720  0.98150  0.22287  Biso   1.000  C
  C513     1.0000 0.06280  0.79830  0.24795  Biso   1.000  C
  C514     1.0000 0.96820  0.90590  0.14371  Biso   1.000  C
  C515     1.0000 0.84500  0.82720  0.09121  Biso   1.000  C
  C516     1.0000 0.20100  0.96580  0.22672  Biso   1.000  C
  C517     1.0000 0.20240  0.89400  0.12882  Biso   1.000  C
  H288     1.0000 0.22400  0.91230  0.11170  Biso   1.000  H
  C518     1.0000 0.13920  0.84030  0.17884  Biso   1.000  C
  C519     1.0000 0.08180  0.76050  0.24495  Biso   1.000  C
  C520     1.0000 0.95660  0.86150  0.09354  Biso   1.000  C
  H289     1.0000 0.99510  0.87330  0.09390  Biso   1.000  H
  C521     1.0000 0.17880  0.82840  0.16741  Biso   1.000  C
  H290     1.0000 0.18390  0.80090  0.17720  Biso   1.000  H
  C522     1.0000 0.11010  0.81310  0.20622  Biso   1.000  C
  C523     1.0000 0.24030  0.97800  0.20480  Biso   1.000  C
  H291     1.0000 0.24160  0.99900  0.18780  Biso   1.000  H
  C524     1.0000 0.21070  0.85410  0.14297  Biso   1.000  C
  C525     1.0000 0.86820  0.81310  0.06850  Biso   1.000  C
  H292     1.0000 0.84610  0.79190  0.05210  Biso   1.000  H
  C526     1.0000 0.27870  0.95890  0.20790  Biso   1.000  C
  H293     1.0000 0.30520  0.96680  0.19260  Biso   1.000  H
  C527     1.0000 0.25460  0.84130  0.13200  Biso   1.000  C
  H294     1.0000 0.26620  0.85620  0.11180  Biso   1.000  H
  H295     1.0000 0.28680  0.85850  0.14540  Biso   1.000  H
  H296     1.0000 0.23940  0.80100  0.13180  Biso   1.000  H
  C528     1.0000 0.92520  0.83020  0.06970  Biso   1.000  C
  H297     1.0000 0.94180  0.82020  0.05420  Biso   1.000  H
  C529     1.0000 0.27870  0.92860  0.23300  Biso   1.000  C
  H298     1.0000 0.30450  0.91570  0.23480  Biso   1.000  H
  O147     1.0000 0.03604  0.94110  0.20620  Biso   1.000  O
  N91      1.0000 0.13350  0.97830  0.13557  Biso   1.000  N
  N92      1.0000 0.18320  0.97540  0.09750  Biso   1.000  N
  H299     1.0000 0.20220  0.96490  0.08620  Biso   1.000  H
  Fe33     1.0000 0.87364  0.91576  0.17236  Biso   1.000  Fe
  O148     1.0000 0.84830  0.84710  0.19843  Biso   1.000  O
  O149     1.0000 0.79960  0.90600  0.17543  Biso   1.000  O
  O150     1.0000 0.89820  0.98080  0.14332  Biso   1.000  O
  O151     1.0000 0.96960  0.05290  0.16485  Biso   1.000  O
  O152     1.0000 0.84590  0.87530  0.24501  Biso   1.000  O
  N93      1.0000 0.74960  0.91910  0.22305  Biso   1.000  N
  H300     1.0000 0.78310  0.92520  0.21860  Biso   1.000  H
  C530     1.0000 0.75060  0.86820  0.16444  Biso   1.000  C
  N94      1.0000 0.65890  0.88860  0.21851  Biso   1.000  N
  C531     1.0000 0.94180  0.06540  0.11684  Biso   1.000  C
  C532     1.0000 0.79310  0.84030  0.12383  Biso   1.000  C
  C533     1.0000 0.74440  0.83640  0.13901  Biso   1.000  C
  C534     1.0000 0.98160  0.12220  0.11544  Biso   1.000  C
  C535     1.0000 0.82430  0.84280  0.22287  Biso   1.000  C
  C536     1.0000 0.73550  0.93720  0.24795  Biso   1.000  C
  C537     1.0000 0.93770  0.03180  0.14371  Biso   1.000  C
  C538     1.0000 0.98220  0.15500  0.09121  Biso   1.000  C
  C539     1.0000 0.76480  0.79900  0.22672  Biso   1.000  C
  C540     1.0000 0.69160  0.79760  0.12882  Biso   1.000  C
  H301     1.0000 0.68830  0.77600  0.11170  Biso   1.000  H
  C541     1.0000 0.70110  0.86080  0.17884  Biso   1.000  C
  C542     1.0000 0.67870  0.91820  0.24495  Biso   1.000  C
  C543     1.0000 0.90490  0.04340  0.09354  Biso   1.000  C
  H302     1.0000 0.87820  0.00490  0.09390  Biso   1.000  H
  C544     1.0000 0.64960  0.82120  0.16741  Biso   1.000  C
  H303     1.0000 0.61700  0.81610  0.17720  Biso   1.000  H
  C545     1.0000 0.70300  0.88990  0.20622  Biso   1.000  C
  C546     1.0000 0.73770  0.75970  0.20480  Biso   1.000  C
  H304     1.0000 0.75740  0.75840  0.18780  Biso   1.000  H
  C547     1.0000 0.64340  0.78930  0.14297  Biso   1.000  C
  C548     1.0000 0.94490  0.13180  0.06850  Biso   1.000  C
  H305     1.0000 0.94580  0.15390  0.05210  Biso   1.000  H
  C549     1.0000 0.68020  0.72130  0.20790  Biso   1.000  C
  H306     1.0000 0.66160  0.69480  0.19260  Biso   1.000  H
  C550     1.0000 0.58670  0.74540  0.13200  Biso   1.000  C
  H307     1.0000 0.59000  0.73380  0.11180  Biso   1.000  H
  H308     1.0000 0.57170  0.71320  0.14540  Biso   1.000  H
  H309     1.0000 0.56160  0.76060  0.13180  Biso   1.000  H
  C551     1.0000 0.90500  0.07480  0.06970  Biso   1.000  C
  H310     1.0000 0.87840  0.05820  0.05420  Biso   1.000  H
  C552     1.0000 0.64990  0.72130  0.23300  Biso   1.000  C
  H311     1.0000 0.61120  0.69550  0.23480  Biso   1.000  H
  O153     1.0000 0.90506  0.96396  0.20620  Biso   1.000  O
  N95      1.0000 0.84480  0.86650  0.13557  Biso   1.000  N
  N96      1.0000 0.79220  0.81680  0.09750  Biso   1.000  N
  H312     1.0000 0.76270  0.79780  0.08620  Biso   1.000  H
  Fe34     1.0000 0.91074  0.95537  0.25000  Biso   1.000  Fe
  Fe35     1.0000 0.04463  0.95537  0.25000  Biso   1.000  Fe
  Fe36     1.0000 0.04463  0.08926  0.25000  Biso   1.000  Fe
  O154     1.0000 0.96480  0.92960  0.25000  Biso   1.000  O
  O155     1.0000 0.07040  0.03520  0.25000  Biso   1.000  O
  O156     1.0000 0.96480  0.03520  0.25000  Biso   1.000  O
  Fe37     1.0000 0.45275  0.68571  0.42925  Biso   1.000  Fe
  Fe38     1.0000 0.42143  0.70013  0.50612  Biso   1.000  Fe
  Fe39     1.0000 0.46091  0.73786  0.58419  Biso   1.000  Fe
  O157     1.0000 0.36010  0.62310  0.50591  Biso   1.000  O
  O158     1.0000 0.49190  0.77490  0.51097  Biso   1.000  O
  O159     1.0000 0.37850  0.75290  0.42170  Biso   1.000  O
  O160     1.0000 0.42720  0.71200  0.46259  Biso   1.000  O
  O161     1.0000 0.47020  0.63870  0.45655  Biso   1.000  O
  O162     1.0000 0.43690  0.73230  0.39875  Biso   1.000  O
  O163     1.0000 0.47820  0.67350  0.50267  Biso   1.000  O
  O164     1.0000 0.53040  0.74270  0.43179  Biso   1.000  O
  O165     1.0000 0.42310  0.69060  0.55032  Biso   1.000  O
  O166     1.0000 0.49570  0.80580  0.55769  Biso   1.000  O
  O167     1.0000 0.32760  0.75840  0.61372  Biso   1.000  O
  N97      1.0000 0.47390  0.65860  0.39171  Biso   1.000  N
  O168     1.0000 0.52850  0.73570  0.58053  Biso   1.000  O
  O169     1.0000 0.39440  0.74740  0.59220  Biso   1.000  O
  N98      1.0000 0.57090  0.70690  0.53580  Biso   1.000  N
  H313     1.0000 0.54030  0.70770  0.53960  Biso   1.000  H
  N99      1.0000 0.67950  0.84530  0.47605  Biso   1.000  N
  N100     1.0000 0.58630  0.80340  0.47811  Biso   1.000  N
  H314     1.0000 0.55140  0.78270  0.47260  Biso   1.000  H
  C553     1.0000 0.57630  0.74650  0.42030  Biso   1.000  C
  N101     1.0000 0.52100  0.66110  0.35103  Biso   1.000  N
  C554     1.0000 0.52450  0.67900  0.37955  Biso   1.000  C
  C555     1.0000 0.62750  0.78210  0.43415  Biso   1.000  C
  C556     1.0000 0.49550  0.65700  0.48144  Biso   1.000  C
  C557     1.0000 0.57600  0.75900  0.59498  Biso   1.000  C
  C558     1.0000 0.51800  0.80550  0.53274  Biso   1.000  C
  C559     1.0000 0.57630  0.71760  0.39404  Biso   1.000  C
  C560     1.0000 0.40650  0.75430  0.39869  Biso   1.000  C
  N102     1.0000 0.65670  0.71960  0.54193  Biso   1.000  N
  C561     1.0000 0.57450  0.64390  0.46370  Biso   1.000  C
  H315     1.0000 0.55540  0.62720  0.44570  Biso   1.000  H
  C562     1.0000 0.58130  0.68590  0.51091  Biso   1.000  C
  C563     1.0000 0.57950  0.83980  0.52998  Biso   1.000  C
  N103     1.0000 0.49430  0.78320  0.62266  Biso   1.000  N
  C564     1.0000 0.67720  0.76060  0.39700  Biso   1.000  C
  C565     1.0000 0.58470  0.78930  0.62200  Biso   1.000  C
  C566     1.0000 0.67030  0.77610  0.59940  Biso   1.000  C
  H316     1.0000 0.70000  0.77230  0.59160  Biso   1.000  H
  C567     1.0000 0.63130  0.81150  0.46240  Biso   1.000  C
  C568     1.0000 0.62640  0.72510  0.38340  Biso   1.000  C
  H317     1.0000 0.62610  0.70530  0.36600  Biso   1.000  H
  C569     1.0000 0.40360  0.78210  0.37131  Biso   1.000  C
  C570     1.0000 0.55020  0.66070  0.48510  Biso   1.000  C
  C571     1.0000 0.67600  0.78820  0.42220  Biso   1.000  C
  H318     1.0000 0.71020  0.81270  0.43180  Biso   1.000  H
  C572     1.0000 0.61310  0.87290  0.55240  Biso   1.000  C
  H319     1.0000 0.59650  0.87770  0.56990  Biso   1.000  H
  C573     1.0000 0.60540  0.83370  0.50470  Biso   1.000  C
  C574     1.0000 0.69630  0.89290  0.52620  Biso   1.000  C
  H320     1.0000 0.73570  0.91040  0.52540  Biso   1.000  H
  C575     1.0000 0.62160  0.75480  0.58316  Biso   1.000  C
  C576     1.0000 0.61720  0.72680  0.55420  Biso   1.000  C
  C577     1.0000 0.73190  0.76800  0.38430  Biso   1.000  C
  H321     1.0000 0.73870  0.78560  0.36460  Biso   1.000  H
  H322     1.0000 0.76260  0.79160  0.39770  Biso   1.000  H
  H323     1.0000 0.72920  0.73160  0.38240  Biso   1.000  H
  C578     1.0000 0.43590  0.62650  0.37023  Biso   1.000  C
  C579     1.0000 0.63560  0.69370  0.51510  Biso   1.000  C
  C580     1.0000 0.66350  0.85950  0.50210  Biso   1.000  C
  C581     1.0000 0.43200  0.78320  0.34560  Biso   1.000  C
  H324     1.0000 0.41750  0.74400  0.33950  Biso   1.000  H
  H325     1.0000 0.47140  0.79810  0.35130  Biso   1.000  H
  C582     1.0000 0.62860  0.65210  0.46900  Biso   1.000  C
  H326     1.0000 0.64470  0.64000  0.45420  Biso   1.000  H
  C583     1.0000 0.63550  0.80950  0.63690  Biso   1.000  C
  H327     1.0000 0.64100  0.82900  0.65520  Biso   1.000  H
  C584     1.0000 0.67070  0.89970  0.55060  Biso   1.000  C
  H328     1.0000 0.69260  0.92310  0.56640  Biso   1.000  H
  N104     1.0000 0.54380  0.81620  0.66270  Biso   1.000  N
  H329     1.0000 0.57210  0.82760  0.67500  Biso   1.000  H
  C585     1.0000 0.65810  0.67570  0.49360  Biso   1.000  C
  H330     1.0000 0.69410  0.68000  0.49620  Biso   1.000  H
  C586     1.0000 0.37580  0.76280  0.61360  Biso   1.000  C
  C587     1.0000 0.67760  0.80220  0.62600  Biso   1.000  C
  C588     1.0000 0.46410  0.62710  0.34440  Biso   1.000  C
  C589     1.0000 0.43660  0.59780  0.31900  Biso   1.000  C
  H331     1.0000 0.45590  0.59810  0.30140  Biso   1.000  H
  C590     1.0000 0.46390  0.79480  0.64308  Biso   1.000  C
  C591     1.0000 0.49540  0.81640  0.66880  Biso   1.000  C
  C592     1.0000 0.47370  0.83060  0.69300  Biso   1.000  C
  H332     1.0000 0.49520  0.84540  0.71060  Biso   1.000  H
  C593     1.0000 0.42030  0.82310  0.69143  Biso   1.000  C
  H333     1.0000 0.40550  0.83280  0.70800  Biso   1.000  H
  C594     1.0000 0.38880  0.80150  0.66570  Biso   1.000  C
  H334     1.0000 0.35240  0.79640  0.66460  Biso   1.000  H
  C595     1.0000 0.41060  0.78730  0.64152  Biso   1.000  C
  C596     1.0000 0.43170  0.81140  0.32090  Biso   1.000  C
  H335     1.0000 0.45300  0.81220  0.30410  Biso   1.000  H
  C597     1.0000 0.54150  0.79640  0.63540  Biso   1.000  C
  C598     1.0000 0.73250  0.82660  0.64330  Biso   1.000  C
  H336     1.0000 0.76190  0.85740  0.63190  Biso   1.000  H
  H337     1.0000 0.72820  0.84020  0.66270  Biso   1.000  H
  H338     1.0000 0.74250  0.79770  0.64620  Biso   1.000  H
  Fe40     1.0000 0.31429  0.76704  0.42925  Biso   1.000  Fe
  Fe41     1.0000 0.29987  0.72130  0.50612  Biso   1.000  Fe
  Fe42     1.0000 0.26214  0.72305  0.58419  Biso   1.000  Fe
  O170     1.0000 0.37690  0.73700  0.50591  Biso   1.000  O
  O171     1.0000 0.22510  0.71700  0.51097  Biso   1.000  O
  O172     1.0000 0.24710  0.62560  0.42170  Biso   1.000  O
  O173     1.0000 0.28800  0.71520  0.46259  Biso   1.000  O
  O174     1.0000 0.36130  0.83150  0.45655  Biso   1.000  O
  O175     1.0000 0.26770  0.70460  0.39875  Biso   1.000  O
  O176     1.0000 0.32650  0.80470  0.50267  Biso   1.000  O
  O177     1.0000 0.25730  0.78770  0.43179  Biso   1.000  O
  O178     1.0000 0.30940  0.73250  0.55032  Biso   1.000  O
  O179     1.0000 0.19420  0.68990  0.55769  Biso   1.000  O
  O180     1.0000 0.24160  0.56920  0.61372  Biso   1.000  O
  N105     1.0000 0.34140  0.81530  0.39171  Biso   1.000  N
  O181     1.0000 0.26430  0.79280  0.58053  Biso   1.000  O
  O182     1.0000 0.25260  0.64700  0.59220  Biso   1.000  O
  N106     1.0000 0.29310  0.86400  0.53580  Biso   1.000  N
  H339     1.0000 0.29230  0.83260  0.53960  Biso   1.000  H
  N107     1.0000 0.15470  0.83420  0.47605  Biso   1.000  N
  N108     1.0000 0.19660  0.78290  0.47811  Biso   1.000  N
  H340     1.0000 0.21730  0.76870  0.47260  Biso   1.000  H
  C599     1.0000 0.25350  0.82980  0.42030  Biso   1.000  C
  N109     1.0000 0.33890  0.85990  0.35103  Biso   1.000  N
  C600     1.0000 0.32100  0.84550  0.37955  Biso   1.000  C
  C601     1.0000 0.21790  0.84540  0.43415  Biso   1.000  C
  C602     1.0000 0.34300  0.83850  0.48144  Biso   1.000  C
  C603     1.0000 0.24100  0.81700  0.59498  Biso   1.000  C
  C604     1.0000 0.19450  0.71250  0.53274  Biso   1.000  C
  C605     1.0000 0.28240  0.85870  0.39404  Biso   1.000  C
  C606     1.0000 0.24570  0.65220  0.39869  Biso   1.000  C
  N110     1.0000 0.28040  0.93710  0.54193  Biso   1.000  N
  C607     1.0000 0.35610  0.93060  0.46370  Biso   1.000  C
  H341     1.0000 0.37280  0.92820  0.44570  Biso   1.000  H
  C608     1.0000 0.31410  0.89540  0.51091  Biso   1.000  C
  C609     1.0000 0.16020  0.73970  0.52998  Biso   1.000  C
  N111     1.0000 0.21680  0.71110  0.62266  Biso   1.000  N
  C610     1.0000 0.23940  0.91660  0.39700  Biso   1.000  C
  C611     1.0000 0.21070  0.79540  0.62200  Biso   1.000  C
  C612     1.0000 0.22390  0.89420  0.59940  Biso   1.000  C
  H342     1.0000 0.22770  0.92770  0.59160  Biso   1.000  H
  C613     1.0000 0.18850  0.81980  0.46240  Biso   1.000  C
  C614     1.0000 0.27490  0.90130  0.38340  Biso   1.000  C
  H343     1.0000 0.29470  0.92080  0.36600  Biso   1.000  H
  C615     1.0000 0.21790  0.62150  0.37131  Biso   1.000  C
  C616     1.0000 0.33930  0.88950  0.48510  Biso   1.000  C
  C617     1.0000 0.21180  0.88780  0.42220  Biso   1.000  C
  H344     1.0000 0.18730  0.89750  0.43180  Biso   1.000  H
  C618     1.0000 0.12710  0.74020  0.55240  Biso   1.000  C
  H345     1.0000 0.12230  0.71880  0.56990  Biso   1.000  H
  C619     1.0000 0.16630  0.77170  0.50470  Biso   1.000  C
  C620     1.0000 0.10710  0.80340  0.52620  Biso   1.000  C
  H346     1.0000 0.08960  0.82530  0.52540  Biso   1.000  H
  C621     1.0000 0.24520  0.86680  0.58316  Biso   1.000  C
  C622     1.0000 0.27320  0.89040  0.55420  Biso   1.000  C
  C623     1.0000 0.23200  0.96390  0.38430  Biso   1.000  C
  H347     1.0000 0.21440  0.95310  0.36460  Biso   1.000  H
  H348     1.0000 0.20840  0.97100  0.39770  Biso   1.000  H
  H349     1.0000 0.26840  0.99760  0.38240  Biso   1.000  H
  C624     1.0000 0.37350  0.80940  0.37023  Biso   1.000  C
  C625     1.0000 0.30630  0.94190  0.51510  Biso   1.000  C
  C626     1.0000 0.14050  0.80400  0.50210  Biso   1.000  C
  C627     1.0000 0.21680  0.64880  0.34560  Biso   1.000  C
  H350     1.0000 0.25600  0.67350  0.33950  Biso   1.000  H
  H351     1.0000 0.20190  0.67330  0.35130  Biso   1.000  H
  C628     1.0000 0.34790  0.97650  0.46900  Biso   1.000  C
  H352     1.0000 0.36000  0.00470  0.45420  Biso   1.000  H
  C629     1.0000 0.19050  0.82600  0.63690  Biso   1.000  C
  H353     1.0000 0.17100  0.81200  0.65520  Biso   1.000  H
  C630     1.0000 0.10030  0.77100  0.55060  Biso   1.000  C
  H354     1.0000 0.07690  0.76950  0.56640  Biso   1.000  H
  N112     1.0000 0.18380  0.72760  0.66270  Biso   1.000  N
  H355     1.0000 0.17240  0.74450  0.67500  Biso   1.000  H
  C631     1.0000 0.32430  0.98240  0.49360  Biso   1.000  C
  H356     1.0000 0.32000  0.01410  0.49620  Biso   1.000  H
  C632     1.0000 0.23720  0.61300  0.61360  Biso   1.000  C
  C633     1.0000 0.19780  0.87540  0.62600  Biso   1.000  C
  C634     1.0000 0.37290  0.83700  0.34440  Biso   1.000  C
  C635     1.0000 0.40220  0.83880  0.31900  Biso   1.000  C
  H357     1.0000 0.40190  0.85780  0.30140  Biso   1.000  H
  C636     1.0000 0.20520  0.66910  0.64308  Biso   1.000  C
  C637     1.0000 0.18360  0.67900  0.66880  Biso   1.000  C
  C638     1.0000 0.16940  0.64310  0.69300  Biso   1.000  C
  H358     1.0000 0.15460  0.64980  0.71060  Biso   1.000  H
  C639     1.0000 0.17690  0.59720  0.69143  Biso   1.000  C
  H359     1.0000 0.16720  0.57270  0.70800  Biso   1.000  H
  C640     1.0000 0.19850  0.58730  0.66570  Biso   1.000  C
  H360     1.0000 0.20360  0.55600  0.66460  Biso   1.000  H
  C641     1.0000 0.21270  0.62330  0.64152  Biso   1.000  C
  C642     1.0000 0.18860  0.62030  0.32090  Biso   1.000  C
  H361     1.0000 0.18780  0.64080  0.30410  Biso   1.000  H
  C643     1.0000 0.20360  0.74510  0.63540  Biso   1.000  C
  C644     1.0000 0.17340  0.90590  0.64330  Biso   1.000  C
  H362     1.0000 0.14260  0.90450  0.63190  Biso   1.000  H
  H363     1.0000 0.15980  0.88800  0.66270  Biso   1.000  H
  H364     1.0000 0.20230  0.94480  0.64620  Biso   1.000  H
  Fe43     1.0000 0.23296  0.54725  0.42925  Biso   1.000  Fe
  Fe44     1.0000 0.27870  0.57857  0.50612  Biso   1.000  Fe
  Fe45     1.0000 0.27695  0.53909  0.58419  Biso   1.000  Fe
  O183     1.0000 0.26300  0.63990  0.50591  Biso   1.000  O
  O184     1.0000 0.28300  0.50810  0.51097  Biso   1.000  O
  O185     1.0000 0.37440  0.62150  0.42170  Biso   1.000  O
  O186     1.0000 0.28480  0.57280  0.46259  Biso   1.000  O
  O187     1.0000 0.16850  0.52980  0.45655  Biso   1.000  O
  O188     1.0000 0.29540  0.56310  0.39875  Biso   1.000  O
  O189     1.0000 0.19530  0.52180  0.50267  Biso   1.000  O
  O190     1.0000 0.21230  0.46960  0.43179  Biso   1.000  O
  O191     1.0000 0.26750  0.57690  0.55032  Biso   1.000  O
  O192     1.0000 0.31010  0.50430  0.55769  Biso   1.000  O
  O193     1.0000 0.43080  0.67240  0.61372  Biso   1.000  O
  N113     1.0000 0.18470  0.52610  0.39171  Biso   1.000  N
  O194     1.0000 0.20720  0.47150  0.58053  Biso   1.000  O
  O195     1.0000 0.35300  0.60560  0.59220  Biso   1.000  O
  N114     1.0000 0.13600  0.42910  0.53580  Biso   1.000  N
  H365     1.0000 0.16740  0.45970  0.53960  Biso   1.000  H
  N115     1.0000 0.16580  0.32050  0.47605  Biso   1.000  N
  N116     1.0000 0.21710  0.41370  0.47811  Biso   1.000  N
  H366     1.0000 0.23130  0.44860  0.47260  Biso   1.000  H
  C645     1.0000 0.17020  0.42370  0.42030  Biso   1.000  C
  N117     1.0000 0.14010  0.47900  0.35103  Biso   1.000  N
  C646     1.0000 0.15450  0.47550  0.37955  Biso   1.000  C
  C647     1.0000 0.15460  0.37250  0.43415  Biso   1.000  C
  C648     1.0000 0.16150  0.50450  0.48144  Biso   1.000  C
  C649     1.0000 0.18300  0.42400  0.59498  Biso   1.000  C
  C650     1.0000 0.28750  0.48200  0.53274  Biso   1.000  C
  C651     1.0000 0.14130  0.42370  0.39404  Biso   1.000  C
  C652     1.0000 0.34780  0.59350  0.39869  Biso   1.000  C
  N118     1.0000 0.06290  0.34330  0.54193  Biso   1.000  N
  C653     1.0000 0.06940  0.42550  0.46370  Biso   1.000  C
  H367     1.0000 0.07180  0.44460  0.44570  Biso   1.000  H
  C654     1.0000 0.10460  0.41870  0.51091  Biso   1.000  C
  C655     1.0000 0.26030  0.42050  0.52998  Biso   1.000  C
  N119     1.0000 0.28890  0.50570  0.62266  Biso   1.000  N
  C656     1.0000 0.08340  0.32280  0.39700  Biso   1.000  C
  C657     1.0000 0.20460  0.41530  0.62200  Biso   1.000  C
  C658     1.0000 0.10580  0.32970  0.59940  Biso   1.000  C
  H368     1.0000 0.07230  0.30000  0.59160  Biso   1.000  H
  C659     1.0000 0.18020  0.36870  0.46240  Biso   1.000  C
  C660     1.0000 0.09870  0.37360  0.38340  Biso   1.000  C
  H369     1.0000 0.07920  0.37390  0.36600  Biso   1.000  H
  C661     1.0000 0.37850  0.59640  0.37131  Biso   1.000  C
  C662     1.0000 0.11050  0.44980  0.48510  Biso   1.000  C
  C663     1.0000 0.11220  0.32400  0.42220  Biso   1.000  C
  H370     1.0000 0.10250  0.28980  0.43180  Biso   1.000  H
  C664     1.0000 0.25980  0.38690  0.55240  Biso   1.000  C
  H371     1.0000 0.28120  0.40350  0.56990  Biso   1.000  H
  C665     1.0000 0.22830  0.39460  0.50470  Biso   1.000  C
  C666     1.0000 0.19660  0.30370  0.52620  Biso   1.000  C
  H372     1.0000 0.17470  0.26430  0.52540  Biso   1.000  H
  C667     1.0000 0.13320  0.37840  0.58316  Biso   1.000  C
  C668     1.0000 0.10960  0.38280  0.55420  Biso   1.000  C
  C669     1.0000 0.03610  0.26810  0.38430  Biso   1.000  C
  H373     1.0000 0.04690  0.26130  0.36460  Biso   1.000  H
  H374     1.0000 0.02900  0.23740  0.39770  Biso   1.000  H
  H375     1.0000 0.00240  0.27080  0.38240  Biso   1.000  H
  C670     1.0000 0.19060  0.56410  0.37023  Biso   1.000  C
  C671     1.0000 0.05810  0.36440  0.51510  Biso   1.000  C
  C672     1.0000 0.19600  0.33650  0.50210  Biso   1.000  C
  C673     1.0000 0.35120  0.56800  0.34560  Biso   1.000  C
  H376     1.0000 0.32650  0.58250  0.33950  Biso   1.000  H
  H377     1.0000 0.32670  0.52860  0.35130  Biso   1.000  H
  C674     1.0000 0.02350  0.37140  0.46900  Biso   1.000  C
  H378     1.0000 0.99530  0.35530  0.45420  Biso   1.000  H
  C675     1.0000 0.17400  0.36450  0.63690  Biso   1.000  C
  H379     1.0000 0.18800  0.35900  0.65520  Biso   1.000  H
  C676     1.0000 0.22900  0.32930  0.55060  Biso   1.000  C
  H380     1.0000 0.23050  0.30740  0.56640  Biso   1.000  H
  N120     1.0000 0.27240  0.45620  0.66270  Biso   1.000  N
  H381     1.0000 0.25550  0.42790  0.67500  Biso   1.000  H
  C677     1.0000 0.01760  0.34190  0.49360  Biso   1.000  C
  H382     1.0000 0.98590  0.30590  0.49620  Biso   1.000  H
  C678     1.0000 0.38700  0.62420  0.61360  Biso   1.000  C
  C679     1.0000 0.12460  0.32240  0.62600  Biso   1.000  C
  C680     1.0000 0.16300  0.53590  0.34440  Biso   1.000  C
  C681     1.0000 0.16120  0.56340  0.31900  Biso   1.000  C
  H383     1.0000 0.14220  0.54410  0.30140  Biso   1.000  H
  C682     1.0000 0.33090  0.53610  0.64308  Biso   1.000  C
  C683     1.0000 0.32100  0.50460  0.66880  Biso   1.000  C
  C684     1.0000 0.35690  0.52630  0.69300  Biso   1.000  C
  H384     1.0000 0.35020  0.50480  0.71060  Biso   1.000  H
  C685     1.0000 0.40280  0.57970  0.69143  Biso   1.000  C
  H385     1.0000 0.42730  0.59450  0.70800  Biso   1.000  H
  C686     1.0000 0.41270  0.61120  0.66570  Biso   1.000  C
  H386     1.0000 0.44400  0.64760  0.66460  Biso   1.000  H
  C687     1.0000 0.37670  0.58940  0.64152  Biso   1.000  C
  C688     1.0000 0.37970  0.56830  0.32090  Biso   1.000  C
  H387     1.0000 0.35920  0.54700  0.30410  Biso   1.000  H
  C689     1.0000 0.25490  0.45850  0.63540  Biso   1.000  C
  C690     1.0000 0.09410  0.26750  0.64330  Biso   1.000  C
  H388     1.0000 0.09550  0.23810  0.63190  Biso   1.000  H
  H389     1.0000 0.11200  0.27180  0.66270  Biso   1.000  H
  H390     1.0000 0.05520  0.25750  0.64620  Biso   1.000  H
  Fe46     1.0000 0.31429  0.54725  0.07075  Biso   1.000  Fe
  Fe47     1.0000 0.29987  0.57857  0.99388  Biso   1.000  Fe
  Fe48     1.0000 0.26214  0.53909  0.91581  Biso   1.000  Fe
  O196     1.0000 0.37690  0.63990  0.99409  Biso   1.000  O
  O197     1.0000 0.22510  0.50810  0.98903  Biso   1.000  O
  O198     1.0000 0.24710  0.62150  0.07830  Biso   1.000  O
  O199     1.0000 0.28800  0.57280  0.03741  Biso   1.000  O
  O200     1.0000 0.36130  0.52980  0.04345  Biso   1.000  O
  O201     1.0000 0.26770  0.56310  0.10125  Biso   1.000  O
  O202     1.0000 0.32650  0.52180  0.99733  Biso   1.000  O
  O203     1.0000 0.25730  0.46960  0.06821  Biso   1.000  O
  O204     1.0000 0.30940  0.57690  0.94968  Biso   1.000  O
  O205     1.0000 0.19420  0.50430  0.94231  Biso   1.000  O
  O206     1.0000 0.24160  0.67240  0.88628  Biso   1.000  O
  N121     1.0000 0.34140  0.52610  0.10829  Biso   1.000  N
  O207     1.0000 0.26430  0.47150  0.91947  Biso   1.000  O
  O208     1.0000 0.25260  0.60560  0.90780  Biso   1.000  O
  N122     1.0000 0.29310  0.42910  0.96420  Biso   1.000  N
  H391     1.0000 0.29230  0.45970  0.96040  Biso   1.000  H
  N123     1.0000 0.15470  0.32050  0.02395  Biso   1.000  N
  N124     1.0000 0.19660  0.41370  0.02189  Biso   1.000  N
  H392     1.0000 0.21730  0.44860  0.02740  Biso   1.000  H
  C691     1.0000 0.25350  0.42370  0.07970  Biso   1.000  C
  N125     1.0000 0.33890  0.47900  0.14897  Biso   1.000  N
  C692     1.0000 0.32100  0.47550  0.12045  Biso   1.000  C
  C693     1.0000 0.21790  0.37250  0.06585  Biso   1.000  C
  C694     1.0000 0.34300  0.50450  0.01856  Biso   1.000  C
  C695     1.0000 0.24100  0.42400  0.90502  Biso   1.000  C
  C696     1.0000 0.19450  0.48200  0.96726  Biso   1.000  C
  C697     1.0000 0.28240  0.42370  0.10596  Biso   1.000  C
  C698     1.0000 0.24570  0.59350  0.10131  Biso   1.000  C
  N126     1.0000 0.28040  0.34330  0.95807  Biso   1.000  N
  C699     1.0000 0.35610  0.42550  0.03630  Biso   1.000  C
  H393     1.0000 0.37280  0.44460  0.05430  Biso   1.000  H
  C700     1.0000 0.31410  0.41870  0.98909  Biso   1.000  C
  C701     1.0000 0.16020  0.42050  0.97002  Biso   1.000  C
  N127     1.0000 0.21680  0.50570  0.87734  Biso   1.000  N
  C702     1.0000 0.23940  0.32280  0.10300  Biso   1.000  C
  C703     1.0000 0.21070  0.41530  0.87800  Biso   1.000  C
  C704     1.0000 0.22390  0.32970  0.90060  Biso   1.000  C
  H394     1.0000 0.22770  0.30000  0.90840  Biso   1.000  H
  C705     1.0000 0.18850  0.36870  0.03760  Biso   1.000  C
  C706     1.0000 0.27490  0.37360  0.11660  Biso   1.000  C
  H395     1.0000 0.29470  0.37390  0.13400  Biso   1.000  H
  C707     1.0000 0.21790  0.59640  0.12869  Biso   1.000  C
  C708     1.0000 0.33930  0.44980  0.01490  Biso   1.000  C
  C709     1.0000 0.21180  0.32400  0.07780  Biso   1.000  C
  H396     1.0000 0.18730  0.28980  0.06820  Biso   1.000  H
  C710     1.0000 0.12710  0.38690  0.94760  Biso   1.000  C
  H397     1.0000 0.12230  0.40350  0.93010  Biso   1.000  H
  C711     1.0000 0.16630  0.39460  0.99530  Biso   1.000  C
  C712     1.0000 0.10710  0.30370  0.97380  Biso   1.000  C
  H398     1.0000 0.08960  0.26430  0.97460  Biso   1.000  H
  C713     1.0000 0.24520  0.37840  0.91684  Biso   1.000  C
  C714     1.0000 0.27320  0.38280  0.94580  Biso   1.000  C
  C715     1.0000 0.23200  0.26810  0.11570  Biso   1.000  C
  H399     1.0000 0.21440  0.26130  0.13540  Biso   1.000  H
  H400     1.0000 0.20840  0.23740  0.10230  Biso   1.000  H
  H401     1.0000 0.26840  0.27080  0.11760  Biso   1.000  H
  C716     1.0000 0.37350  0.56410  0.12977  Biso   1.000  C
  C717     1.0000 0.30630  0.36440  0.98490  Biso   1.000  C
  C718     1.0000 0.14050  0.33650  0.99790  Biso   1.000  C
  C719     1.0000 0.21680  0.56800  0.15440  Biso   1.000  C
  H402     1.0000 0.25600  0.58250  0.16050  Biso   1.000  H
  H403     1.0000 0.20190  0.52860  0.14870  Biso   1.000  H
  C720     1.0000 0.34790  0.37140  0.03100  Biso   1.000  C
  H404     1.0000 0.36000  0.35530  0.04580  Biso   1.000  H
  C721     1.0000 0.19050  0.36450  0.86310  Biso   1.000  C
  H405     1.0000 0.17100  0.35900  0.84480  Biso   1.000  H
  C722     1.0000 0.10030  0.32930  0.94940  Biso   1.000  C
  H406     1.0000 0.07690  0.30740  0.93360  Biso   1.000  H
  N128     1.0000 0.18380  0.45620  0.83730  Biso   1.000  N
  H407     1.0000 0.17240  0.42790  0.82500  Biso   1.000  H
  C723     1.0000 0.32430  0.34190  0.00640  Biso   1.000  C
  H408     1.0000 0.32000  0.30590  0.00380  Biso   1.000  H
  C724     1.0000 0.23720  0.62420  0.88640  Biso   1.000  C
  C725     1.0000 0.19780  0.32240  0.87400  Biso   1.000  C
  C726     1.0000 0.37290  0.53590  0.15560  Biso   1.000  C
  C727     1.0000 0.40220  0.56340  0.18100  Biso   1.000  C
  H409     1.0000 0.40190  0.54410  0.19860  Biso   1.000  H
  C728     1.0000 0.20520  0.53610  0.85692  Biso   1.000  C
  C729     1.0000 0.18360  0.50460  0.83120  Biso   1.000  C
  C730     1.0000 0.16940  0.52630  0.80700  Biso   1.000  C
  H410     1.0000 0.15460  0.50480  0.78940  Biso   1.000  H
  C731     1.0000 0.17690  0.57970  0.80857  Biso   1.000  C
  H411     1.0000 0.16720  0.59450  0.79200  Biso   1.000  H
  C732     1.0000 0.19850  0.61120  0.83430  Biso   1.000  C
  H412     1.0000 0.20360  0.64760  0.83540  Biso   1.000  H
  C733     1.0000 0.21270  0.58940  0.85848  Biso   1.000  C
  C734     1.0000 0.18860  0.56830  0.17910  Biso   1.000  C
  H413     1.0000 0.18780  0.54700  0.19590  Biso   1.000  H
  C735     1.0000 0.20360  0.45850  0.86460  Biso   1.000  C
  C736     1.0000 0.17340  0.26750  0.85670  Biso   1.000  C
  H414     1.0000 0.14260  0.23810  0.86810  Biso   1.000  H
  H415     1.0000 0.15980  0.27180  0.83730  Biso   1.000  H
  H416     1.0000 0.20230  0.25750  0.85380  Biso   1.000  H
  Fe49     1.0000 0.23296  0.68571  0.07075  Biso   1.000  Fe
  Fe50     1.0000 0.27870  0.70013  0.99388  Biso   1.000  Fe
  Fe51     1.0000 0.27695  0.73786  0.91581  Biso   1.000  Fe
  O209     1.0000 0.26300  0.62310  0.99409  Biso   1.000  O
  O210     1.0000 0.28300  0.77490  0.98903  Biso   1.000  O
  O211     1.0000 0.37440  0.75290  0.07830  Biso   1.000  O
  O212     1.0000 0.28480  0.71200  0.03741  Biso   1.000  O
  O213     1.0000 0.16850  0.63870  0.04345  Biso   1.000  O
  O214     1.0000 0.29540  0.73230  0.10125  Biso   1.000  O
  O215     1.0000 0.19530  0.67350  0.99733  Biso   1.000  O
  O216     1.0000 0.21230  0.74270  0.06821  Biso   1.000  O
  O217     1.0000 0.26750  0.69060  0.94968  Biso   1.000  O
  O218     1.0000 0.31010  0.80580  0.94231  Biso   1.000  O
  O219     1.0000 0.43080  0.75840  0.88628  Biso   1.000  O
  N129     1.0000 0.18470  0.65860  0.10829  Biso   1.000  N
  O220     1.0000 0.20720  0.73570  0.91947  Biso   1.000  O
  O221     1.0000 0.35300  0.74740  0.90780  Biso   1.000  O
  N130     1.0000 0.13600  0.70690  0.96420  Biso   1.000  N
  H417     1.0000 0.16740  0.70770  0.96040  Biso   1.000  H
  N131     1.0000 0.16580  0.84530  0.02395  Biso   1.000  N
  N132     1.0000 0.21710  0.80340  0.02189  Biso   1.000  N
  H418     1.0000 0.23130  0.78270  0.02740  Biso   1.000  H
  C737     1.0000 0.17020  0.74650  0.07970  Biso   1.000  C
  N133     1.0000 0.14010  0.66110  0.14897  Biso   1.000  N
  C738     1.0000 0.15450  0.67900  0.12045  Biso   1.000  C
  C739     1.0000 0.15460  0.78210  0.06585  Biso   1.000  C
  C740     1.0000 0.16150  0.65700  0.01856  Biso   1.000  C
  C741     1.0000 0.18300  0.75900  0.90502  Biso   1.000  C
  C742     1.0000 0.28750  0.80550  0.96726  Biso   1.000  C
  C743     1.0000 0.14130  0.71760  0.10596  Biso   1.000  C
  C744     1.0000 0.34780  0.75430  0.10131  Biso   1.000  C
  N134     1.0000 0.06290  0.71960  0.95807  Biso   1.000  N
  C745     1.0000 0.06940  0.64390  0.03630  Biso   1.000  C
  H419     1.0000 0.07180  0.62720  0.05430  Biso   1.000  H
  C746     1.0000 0.10460  0.68590  0.98909  Biso   1.000  C
  C747     1.0000 0.26030  0.83980  0.97002  Biso   1.000  C
  N135     1.0000 0.28890  0.78320  0.87734  Biso   1.000  N
  C748     1.0000 0.08340  0.76060  0.10300  Biso   1.000  C
  C749     1.0000 0.20460  0.78930  0.87800  Biso   1.000  C
  C750     1.0000 0.10580  0.77610  0.90060  Biso   1.000  C
  H420     1.0000 0.07230  0.77230  0.90840  Biso   1.000  H
  C751     1.0000 0.18020  0.81150  0.03760  Biso   1.000  C
  C752     1.0000 0.09870  0.72510  0.11660  Biso   1.000  C
  H421     1.0000 0.07920  0.70530  0.13400  Biso   1.000  H
  C753     1.0000 0.37850  0.78210  0.12869  Biso   1.000  C
  C754     1.0000 0.11050  0.66070  0.01490  Biso   1.000  C
  C755     1.0000 0.11220  0.78820  0.07780  Biso   1.000  C
  H422     1.0000 0.10250  0.81270  0.06820  Biso   1.000  H
  C756     1.0000 0.25980  0.87290  0.94760  Biso   1.000  C
  H423     1.0000 0.28120  0.87770  0.93010  Biso   1.000  H
  C757     1.0000 0.22830  0.83370  0.99530  Biso   1.000  C
  C758     1.0000 0.19660  0.89290  0.97380  Biso   1.000  C
  H424     1.0000 0.17470  0.91040  0.97460  Biso   1.000  H
  C759     1.0000 0.13320  0.75480  0.91684  Biso   1.000  C
  C760     1.0000 0.10960  0.72680  0.94580  Biso   1.000  C
  C761     1.0000 0.03610  0.76800  0.11570  Biso   1.000  C
  H425     1.0000 0.04690  0.78560  0.13540  Biso   1.000  H
  H426     1.0000 0.02900  0.79160  0.10230  Biso   1.000  H
  H427     1.0000 0.00240  0.73160  0.11760  Biso   1.000  H
  C762     1.0000 0.19060  0.62650  0.12977  Biso   1.000  C
  C763     1.0000 0.05810  0.69370  0.98490  Biso   1.000  C
  C764     1.0000 0.19600  0.85950  0.99790  Biso   1.000  C
  C765     1.0000 0.35120  0.78320  0.15440  Biso   1.000  C
  H428     1.0000 0.32650  0.74400  0.16050  Biso   1.000  H
  H429     1.0000 0.32670  0.79810  0.14870  Biso   1.000  H
  C766     1.0000 0.02350  0.65210  0.03100  Biso   1.000  C
  H430     1.0000 0.99530  0.64000  0.04580  Biso   1.000  H
  C767     1.0000 0.17400  0.80950  0.86310  Biso   1.000  C
  H431     1.0000 0.18800  0.82900  0.84480  Biso   1.000  H
  C768     1.0000 0.22900  0.89970  0.94940  Biso   1.000  C
  H432     1.0000 0.23050  0.92310  0.93360  Biso   1.000  H
  N136     1.0000 0.27240  0.81620  0.83730  Biso   1.000  N
  H433     1.0000 0.25550  0.82760  0.82500  Biso   1.000  H
  C769     1.0000 0.01760  0.67570  0.00640  Biso   1.000  C
  H434     1.0000 0.98590  0.68000  0.00380  Biso   1.000  H
  C770     1.0000 0.38700  0.76280  0.88640  Biso   1.000  C
  C771     1.0000 0.12460  0.80220  0.87400  Biso   1.000  C
  C772     1.0000 0.16300  0.62710  0.15560  Biso   1.000  C
  C773     1.0000 0.16120  0.59780  0.18100  Biso   1.000  C
  H435     1.0000 0.14220  0.59810  0.19860  Biso   1.000  H
  C774     1.0000 0.33090  0.79480  0.85692  Biso   1.000  C
  C775     1.0000 0.32100  0.81640  0.83120  Biso   1.000  C
  C776     1.0000 0.35690  0.83060  0.80700  Biso   1.000  C
  H436     1.0000 0.35020  0.84540  0.78940  Biso   1.000  H
  C777     1.0000 0.40280  0.82310  0.80857  Biso   1.000  C
  H437     1.0000 0.42730  0.83280  0.79200  Biso   1.000  H
  C778     1.0000 0.41270  0.80150  0.83430  Biso   1.000  C
  H438     1.0000 0.44400  0.79640  0.83540  Biso   1.000  H
  C779     1.0000 0.37670  0.78730  0.85848  Biso   1.000  C
  C780     1.0000 0.37970  0.81140  0.17910  Biso   1.000  C
  H439     1.0000 0.35920  0.81220  0.19590  Biso   1.000  H
  C781     1.0000 0.25490  0.79640  0.86460  Biso   1.000  C
  C782     1.0000 0.09410  0.82660  0.85670  Biso   1.000  C
  H440     1.0000 0.09550  0.85740  0.86810  Biso   1.000  H
  H441     1.0000 0.11200  0.84020  0.83730  Biso   1.000  H
  H442     1.0000 0.05520  0.79770  0.85380  Biso   1.000  H
  Fe52     1.0000 0.45275  0.76704  0.07075  Biso   1.000  Fe
  Fe53     1.0000 0.42143  0.72130  0.99388  Biso   1.000  Fe
  Fe54     1.0000 0.46091  0.72305  0.91581  Biso   1.000  Fe
  O222     1.0000 0.36010  0.73700  0.99409  Biso   1.000  O
  O223     1.0000 0.49190  0.71700  0.98903  Biso   1.000  O
  O224     1.0000 0.37850  0.62560  0.07830  Biso   1.000  O
  O225     1.0000 0.42720  0.71520  0.03741  Biso   1.000  O
  O226     1.0000 0.47020  0.83150  0.04345  Biso   1.000  O
  O227     1.0000 0.43690  0.70460  0.10125  Biso   1.000  O
  O228     1.0000 0.47820  0.80470  0.99733  Biso   1.000  O
  O229     1.0000 0.53040  0.78770  0.06821  Biso   1.000  O
  O230     1.0000 0.42310  0.73250  0.94968  Biso   1.000  O
  O231     1.0000 0.49570  0.68990  0.94231  Biso   1.000  O
  O232     1.0000 0.32760  0.56920  0.88628  Biso   1.000  O
  N137     1.0000 0.47390  0.81530  0.10829  Biso   1.000  N
  O233     1.0000 0.52850  0.79280  0.91947  Biso   1.000  O
  O234     1.0000 0.39440  0.64700  0.90780  Biso   1.000  O
  N138     1.0000 0.57090  0.86400  0.96420  Biso   1.000  N
  H443     1.0000 0.54030  0.83260  0.96040  Biso   1.000  H
  N139     1.0000 0.67950  0.83420  0.02395  Biso   1.000  N
  N140     1.0000 0.58630  0.78290  0.02189  Biso   1.000  N
  H444     1.0000 0.55140  0.76870  0.02740  Biso   1.000  H
  C783     1.0000 0.57630  0.82980  0.07970  Biso   1.000  C
  N141     1.0000 0.52100  0.85990  0.14897  Biso   1.000  N
  C784     1.0000 0.52450  0.84550  0.12045  Biso   1.000  C
  C785     1.0000 0.62750  0.84540  0.06585  Biso   1.000  C
  C786     1.0000 0.49550  0.83850  0.01856  Biso   1.000  C
  C787     1.0000 0.57600  0.81700  0.90502  Biso   1.000  C
  C788     1.0000 0.51800  0.71250  0.96726  Biso   1.000  C
  C789     1.0000 0.57630  0.85870  0.10596  Biso   1.000  C
  C790     1.0000 0.40650  0.65220  0.10131  Biso   1.000  C
  N142     1.0000 0.65670  0.93710  0.95807  Biso   1.000  N
  C791     1.0000 0.57450  0.93060  0.03630  Biso   1.000  C
  H445     1.0000 0.55540  0.92820  0.05430  Biso   1.000  H
  C792     1.0000 0.58130  0.89540  0.98909  Biso   1.000  C
  C793     1.0000 0.57950  0.73970  0.97002  Biso   1.000  C
  N143     1.0000 0.49430  0.71110  0.87734  Biso   1.000  N
  C794     1.0000 0.67720  0.91660  0.10300  Biso   1.000  C
  C795     1.0000 0.58470  0.79540  0.87800  Biso   1.000  C
  C796     1.0000 0.67030  0.89420  0.90060  Biso   1.000  C
  H446     1.0000 0.70000  0.92770  0.90840  Biso   1.000  H
  C797     1.0000 0.63130  0.81980  0.03760  Biso   1.000  C
  C798     1.0000 0.62640  0.90130  0.11660  Biso   1.000  C
  H447     1.0000 0.62610  0.92080  0.13400  Biso   1.000  H
  C799     1.0000 0.40360  0.62150  0.12869  Biso   1.000  C
  C800     1.0000 0.55020  0.88950  0.01490  Biso   1.000  C
  C801     1.0000 0.67600  0.88780  0.07780  Biso   1.000  C
  H448     1.0000 0.71020  0.89750  0.06820  Biso   1.000  H
  C802     1.0000 0.61310  0.74020  0.94760  Biso   1.000  C
  H449     1.0000 0.59650  0.71880  0.93010  Biso   1.000  H
  C803     1.0000 0.60540  0.77170  0.99530  Biso   1.000  C
  C804     1.0000 0.69630  0.80340  0.97380  Biso   1.000  C
  H450     1.0000 0.73570  0.82530  0.97460  Biso   1.000  H
  C805     1.0000 0.62160  0.86680  0.91684  Biso   1.000  C
  C806     1.0000 0.61720  0.89040  0.94580  Biso   1.000  C
  C807     1.0000 0.73190  0.96390  0.11570  Biso   1.000  C
  H451     1.0000 0.73870  0.95310  0.13540  Biso   1.000  H
  H452     1.0000 0.76260  0.97100  0.10230  Biso   1.000  H
  H453     1.0000 0.72920  0.99760  0.11760  Biso   1.000  H
  C808     1.0000 0.43590  0.80940  0.12977  Biso   1.000  C
  C809     1.0000 0.63560  0.94190  0.98490  Biso   1.000  C
  C810     1.0000 0.66350  0.80400  0.99790  Biso   1.000  C
  C811     1.0000 0.43200  0.64880  0.15440  Biso   1.000  C
  H454     1.0000 0.41750  0.67350  0.16050  Biso   1.000  H
  H455     1.0000 0.47140  0.67330  0.14870  Biso   1.000  H
  C812     1.0000 0.62860  0.97650  0.03100  Biso   1.000  C
  H456     1.0000 0.64470  0.00470  0.04580  Biso   1.000  H
  C813     1.0000 0.63550  0.82600  0.86310  Biso   1.000  C
  H457     1.0000 0.64100  0.81200  0.84480  Biso   1.000  H
  C814     1.0000 0.67070  0.77100  0.94940  Biso   1.000  C
  H458     1.0000 0.69260  0.76950  0.93360  Biso   1.000  H
  N144     1.0000 0.54380  0.72760  0.83730  Biso   1.000  N
  H459     1.0000 0.57210  0.74450  0.82500  Biso   1.000  H
  C815     1.0000 0.65810  0.98240  0.00640  Biso   1.000  C
  H460     1.0000 0.69410  0.01410  0.00380  Biso   1.000  H
  C816     1.0000 0.37580  0.61300  0.88640  Biso   1.000  C
  C817     1.0000 0.67760  0.87540  0.87400  Biso   1.000  C
  C818     1.0000 0.46410  0.83700  0.15560  Biso   1.000  C
  C819     1.0000 0.43660  0.83880  0.18100  Biso   1.000  C
  H461     1.0000 0.45590  0.85780  0.19860  Biso   1.000  H
  C820     1.0000 0.46390  0.66910  0.85692  Biso   1.000  C
  C821     1.0000 0.49540  0.67900  0.83120  Biso   1.000  C
  C822     1.0000 0.47370  0.64310  0.80700  Biso   1.000  C
  H462     1.0000 0.49520  0.64980  0.78940  Biso   1.000  H
  C823     1.0000 0.42030  0.59720  0.80857  Biso   1.000  C
  H463     1.0000 0.40550  0.57270  0.79200  Biso   1.000  H
  C824     1.0000 0.38880  0.58730  0.83430  Biso   1.000  C
  H464     1.0000 0.35240  0.55600  0.83540  Biso   1.000  H
  C825     1.0000 0.41060  0.62330  0.85848  Biso   1.000  C
  C826     1.0000 0.43170  0.62030  0.17910  Biso   1.000  C
  H465     1.0000 0.45300  0.64080  0.19590  Biso   1.000  H
  C827     1.0000 0.54150  0.74510  0.86460  Biso   1.000  C
  C828     1.0000 0.73250  0.90590  0.85670  Biso   1.000  C
  H466     1.0000 0.76190  0.90450  0.86810  Biso   1.000  H
  H467     1.0000 0.72820  0.88800  0.83730  Biso   1.000  H
  H468     1.0000 0.74250  0.94480  0.85380  Biso   1.000  H
