data_image0
_cell_length_a       23.9537
_cell_length_b       41.5149
_cell_length_c       23.8634
_cell_angle_alpha    90
_cell_angle_beta     108.316
_cell_angle_gamma    90

_symmetry_space_group_name_H-M    "P 1"
_symmetry_int_tables_number       1

loop_
  _symmetry_equiv_pos_as_xyz
  'x, y, z'

loop_
  _atom_site_label
  _atom_site_occupancy
  _atom_site_fract_x
  _atom_site_fract_y
  _atom_site_fract_z
  _atom_site_thermal_displace_type
  _atom_site_B_iso_or_equiv
  _atom_site_type_symbol
  Ru1      1.0000 0.17593  0.03120  0.78473  Biso   1.000  Ru
  Ru2      1.0000 0.67876  0.85172  0.80361  Biso   1.000  Ru
  Ru3      1.0000 0.69497  0.18785  0.80773  Biso   1.000  Ru
  Tb1      1.0000 0.46643  0.02209  0.61627  Biso   1.000  Tb
  C1       1.0000 0.23850  0.07640  0.88540  Biso   1.000  C
  H1       1.0000 0.26700  0.05990  0.89880  Biso   1.000  H
  C2       1.0000 0.24410  0.10380  0.91720  Biso   1.000  C
  H2       1.0000 0.27580  0.10640  0.95280  Biso   1.000  H
  C3       1.0000 0.20370  0.12760  0.89760  Biso   1.000  C
  H3       1.0000 0.20760  0.14680  0.92000  Biso   1.000  H
  C4       1.0000 0.15820  0.12470  0.84700  Biso   1.000  C
  H4       1.0000 0.13000  0.14140  0.83350  Biso   1.000  H
  C5       1.0000 0.15480  0.09630  0.81590  Biso   1.000  C
  C6       1.0000 0.10810  0.09050  0.75870  Biso   1.000  C
  C7       1.0000 0.06560  0.11290  0.73310  Biso   1.000  C
  H5       1.0000 0.06170  0.13270  0.75130  Biso   1.000  H
  C8       1.0000 0.02750  0.10330  0.67570  Biso   1.000  C
  H6       1.0000 0.99640  0.11750  0.65600  Biso   1.000  H
  C9       1.0000 0.03270  0.07550  0.64780  Biso   1.000  C
  H7       1.0000 0.00810  0.07060  0.60900  Biso   1.000  H
  C10      1.0000 0.07530  0.05530  0.67920  Biso   1.000  C
  H8       1.0000 0.07880  0.03500  0.66210  Biso   1.000  H
  C11      1.0000 0.10180  0.02570  0.86780  Biso   1.000  C
  H9       1.0000 0.11750  0.04600  0.88310  Biso   1.000  H
  C12      1.0000 0.06460  0.00920  0.89230  Biso   1.000  C
  H10      1.0000 0.05360  0.01910  0.92320  Biso   1.000  H
  C13      1.0000 0.04440  0.98070  0.87420  Biso   1.000  C
  H11      1.0000 0.02110  0.96930  0.89330  Biso   1.000  H
  C14      1.0000 0.05730  0.96740  0.82690  Biso   1.000  C
  H12      1.0000 0.04090  0.94720  0.81130  Biso   1.000  H
  C15      1.0000 0.09330  0.98330  0.80300  Biso   1.000  C
  C16      1.0000 0.11120  0.97130  0.75230  Biso   1.000  C
  C17      1.0000 0.09200  0.94130  0.72140  Biso   1.000  C
  H13      1.0000 0.06640  0.92770  0.73400  Biso   1.000  H
  C18      1.0000 0.10950  0.93220  0.67500  Biso   1.000  C
  H14      1.0000 0.09660  0.91250  0.65470  Biso   1.000  H
  C19      1.0000 0.14620  0.95250  0.65900  Biso   1.000  C
  H15      1.0000 0.15990  0.94680  0.62700  Biso   1.000  H
  C20      1.0000 0.16360  0.98060  0.68780  Biso   1.000  C
  H16      1.0000 0.18840  0.99430  0.67420  Biso   1.000  H
  C21      1.0000 0.24230  0.98610  0.88500  Biso   1.000  C
  H17      1.0000 0.21060  0.98890  0.90040  Biso   1.000  H
  C22      1.0000 0.28580  0.96490  0.91200  Biso   1.000  C
  H18      1.0000 0.28330  0.95260  0.94470  Biso   1.000  H
  C23      1.0000 0.33380  0.96110  0.89180  Biso   1.000  C
  C24      1.0000 0.33730  0.98030  0.84470  Biso   1.000  C
  H19      1.0000 0.37050  0.97920  0.83110  Biso   1.000  H
  C25      1.0000 0.29060  0.00120  0.81830  Biso   1.000  C
  C26      1.0000 0.28870  0.02200  0.76760  Biso   1.000  C
  C27      1.0000 0.33170  0.02090  0.74030  Biso   1.000  C
  H20      1.0000 0.36510  0.00740  0.75550  Biso   1.000  H
  C28      1.0000 0.32630  0.03960  0.69070  Biso   1.000  C
  C29      1.0000 0.27750  0.05960  0.67020  Biso   1.000  C
  H21      1.0000 0.27290  0.07330  0.63720  Biso   1.000  H
  C30      1.0000 0.23620  0.05890  0.69940  Biso   1.000  C
  H22      1.0000 0.20270  0.07240  0.68520  Biso   1.000  H
  C31      1.0000 0.38020  0.93630  0.91860  Biso   1.000  C
  C32      1.0000 0.37190  0.03570  0.66010  Biso   1.000  C
  C33      1.0000 0.72330  0.88790  0.71450  Biso   1.000  C
  H23      1.0000 0.68590  0.89800  0.70280  Biso   1.000  H
  C34      1.0000 0.75980  0.89540  0.68500  Biso   1.000  C
  H24      1.0000 0.74870  0.91030  0.65330  Biso   1.000  H
  C35      1.0000 0.81410  0.88110  0.70170  Biso   1.000  C
  H25      1.0000 0.84150  0.88580  0.68150  Biso   1.000  H
  C36      1.0000 0.82850  0.85960  0.74890  Biso   1.000  C
  H26      1.0000 0.86620  0.84970  0.76150  Biso   1.000  H
  C37      1.0000 0.78850  0.85280  0.77660  Biso   1.000  C
  C38      1.0000 0.79910  0.82930  0.82580  Biso   1.000  C
  C39      1.0000 0.85190  0.81380  0.85040  Biso   1.000  C
  H27      1.0000 0.88450  0.81840  0.83710  Biso   1.000  H
  C40      1.0000 0.85720  0.79130  0.89440  Biso   1.000  C
  H28      1.0000 0.89280  0.77980  0.91130  Biso   1.000  H
  C41      1.0000 0.81010  0.78620  0.91250  Biso   1.000  C
  H29      1.0000 0.81290  0.77100  0.94300  Biso   1.000  H
  C42      1.0000 0.75760  0.80270  0.88780  Biso   1.000  C
  H30      1.0000 0.72540  0.79860  0.90190  Biso   1.000  H
  C43      1.0000 0.65360  0.81010  0.69340  Biso   1.000  C
  H31      1.0000 0.67810  0.82470  0.68110  Biso   1.000  H
  C44      1.0000 0.62780  0.78480  0.65600  Biso   1.000  C
  H32      1.0000 0.63520  0.78200  0.61950  Biso   1.000  H
  C45      1.0000 0.59360  0.76510  0.67190  Biso   1.000  C
  H33      1.0000 0.57450  0.74860  0.64520  Biso   1.000  H
  C46      1.0000 0.58310  0.76710  0.72870  Biso   1.000  C
  H34      1.0000 0.56050  0.75170  0.74170  Biso   1.000  H
  C47      1.0000 0.61030  0.79440  0.76310  Biso   1.000  C
  C48      1.0000 0.59890  0.80150  0.81860  Biso   1.000  C
  C49      1.0000 0.56560  0.78420  0.84360  Biso   1.000  C
  H35      1.0000 0.54800  0.76480  0.82550  Biso   1.000  H
  C50      1.0000 0.55700  0.79400  0.89330  Biso   1.000  C
  H36      1.0000 0.53470  0.78110  0.91140  Biso   1.000  H
  C51      1.0000 0.58040  0.82300  0.91880  Biso   1.000  C
  H37      1.0000 0.57330  0.83080  0.95340  Biso   1.000  H
  C52      1.0000 0.61390  0.83980  0.89260  Biso   1.000  C
  H38      1.0000 0.63000  0.85980  0.90940  Biso   1.000  H
  C53      1.0000 0.56640  0.87870  0.71690  Biso   1.000  C
  H39      1.0000 0.55750  0.85720  0.70300  Biso   1.000  H
  C54      1.0000 0.53040  0.90420  0.68740  Biso   1.000  C
  H40      1.0000 0.49830  0.90000  0.65270  Biso   1.000  H
  C55      1.0000 0.54150  0.93520  0.70870  Biso   1.000  C
  C56      1.0000 0.58820  0.94010  0.76060  Biso   1.000  C
  H41      1.0000 0.59590  0.96120  0.77690  Biso   1.000  H
  C57      1.0000 0.62260  0.91520  0.78800  Biso   1.000  C
  C58      1.0000 0.67300  0.91810  0.84320  Biso   1.000  C
  C59      1.0000 0.68680  0.94620  0.87530  Biso   1.000  C
  H42      1.0000 0.66300  0.96490  0.86290  Biso   1.000  H
  C60      1.0000 0.73560  0.94740  0.92600  Biso   1.000  C
  C61      1.0000 0.76750  0.91920  0.94290  Biso   1.000  C
  H43      1.0000 0.80070  0.91910  0.97750  Biso   1.000  H
  C62      1.0000 0.75140  0.89100  0.90980  Biso   1.000  C
  H44      1.0000 0.77370  0.87190  0.92240  Biso   1.000  H
  C63      1.0000 0.51020  0.96360  0.67480  Biso   1.000  C
  C64      1.0000 0.75230  0.97880  0.96010  Biso   1.000  C
  C65      1.0000 0.58430  0.20630  0.70820  Biso   1.000  C
  H45      1.0000 0.58580  0.18490  0.69470  Biso   1.000  H
  C66      1.0000 0.53980  0.22600  0.67710  Biso   1.000  C
  H46      1.0000 0.50990  0.21810  0.64350  Biso   1.000  H
  C67      1.0000 0.53860  0.25770  0.69510  Biso   1.000  C
  H47      1.0000 0.50870  0.27210  0.67360  Biso   1.000  H
  C68      1.0000 0.58170  0.26760  0.74490  Biso   1.000  C
  H48      1.0000 0.58140  0.28910  0.75840  Biso   1.000  H
  C69      1.0000 0.62570  0.24670  0.77580  Biso   1.000  C
  C70      1.0000 0.67600  0.25530  0.82750  Biso   1.000  C
  C71      1.0000 0.68010  0.28570  0.85440  Biso   1.000  C
  H49      1.0000 0.65050  0.30150  0.83980  Biso   1.000  H
  C72      1.0000 0.72760  0.29160  0.90160  Biso   1.000  C
  H50      1.0000 0.73220  0.31220  0.91990  Biso   1.000  H
  C73      1.0000 0.77030  0.26760  0.92420  Biso   1.000  C
  H51      1.0000 0.80300  0.27190  0.95830  Biso   1.000  H
  C74      1.0000 0.76470  0.23760  0.89660  Biso   1.000  C
  H52      1.0000 0.79410  0.22160  0.91070  Biso   1.000  H
  C75      1.0000 0.73680  0.21140  0.70730  Biso   1.000  C
  H53      1.0000 0.69730  0.21830  0.68980  Biso   1.000  H
  C76      1.0000 0.77650  0.21770  0.67800  Biso   1.000  C
  H54      1.0000 0.76600  0.22950  0.64200  Biso   1.000  H
  C77      1.0000 0.83220  0.20610  0.70350  Biso   1.000  C
  H55      1.0000 0.86030  0.20880  0.68330  Biso   1.000  H
  C78      1.0000 0.84880  0.19080  0.75610  Biso   1.000  C
  H56      1.0000 0.88810  0.18370  0.77370  Biso   1.000  H
  C79      1.0000 0.80730  0.18590  0.78300  Biso   1.000  C
  C80      1.0000 0.81760  0.16730  0.83830  Biso   1.000  C
  C81      1.0000 0.87210  0.15350  0.86920  Biso   1.000  C
  H57      1.0000 0.90580  0.15650  0.85700  Biso   1.000  H
  C82      1.0000 0.87420  0.13540  0.91790  Biso   1.000  C
  H58      1.0000 0.91030  0.12550  0.93950  Biso   1.000  H
  C83      1.0000 0.82690  0.13120  0.93600  Biso   1.000  C
  H59      1.0000 0.82910  0.11790  0.96910  Biso   1.000  H
  C84      1.0000 0.77470  0.14660  0.90530  Biso   1.000  C
  H60      1.0000 0.74150  0.14460  0.91880  Biso   1.000  H
  C85      1.0000 0.67120  0.13160  0.72250  Biso   1.000  C
  H61      1.0000 0.70180  0.14040  0.70970  Biso   1.000  H
  C86      1.0000 0.64080  0.10450  0.69160  Biso   1.000  C
  H62      1.0000 0.65120  0.09480  0.66020  Biso   1.000  H
  C87      1.0000 0.59500  0.09300  0.70970  Biso   1.000  C
  C88      1.0000 0.58490  0.10630  0.75850  Biso   1.000  C
  H63      1.0000 0.55530  0.09750  0.77260  Biso   1.000  H
  C89      1.0000 0.61790  0.13250  0.78710  Biso   1.000  C
  C90      1.0000 0.60720  0.14800  0.83740  Biso   1.000  C
  C91      1.0000 0.56670  0.13830  0.86330  Biso   1.000  C
  H64      1.0000 0.54380  0.11950  0.84970  Biso   1.000  H
  C92      1.0000 0.55930  0.15630  0.91040  Biso   1.000  C
  C93      1.0000 0.59410  0.18260  0.92960  Biso   1.000  C
  H65      1.0000 0.59040  0.19490  0.96190  Biso   1.000  H
  C94      1.0000 0.63430  0.19140  0.90230  Biso   1.000  C
  H66      1.0000 0.65810  0.20980  0.91650  Biso   1.000  H
  C95      1.0000 0.55420  0.06680  0.67640  Biso   1.000  C
  C96      1.0000 0.51430  0.14640  0.93860  Biso   1.000  C
  N1       1.0000 0.19380  0.07190  0.83530  Biso   1.000  N
  N2       1.0000 0.11380  0.06190  0.73380  Biso   1.000  N
  N3       1.0000 0.11560  0.01220  0.82100  Biso   1.000  N
  N4       1.0000 0.14800  0.99030  0.73410  Biso   1.000  N
  N5       1.0000 0.24270  0.00360  0.83700  Biso   1.000  N
  N6       1.0000 0.24030  0.04070  0.74620  Biso   1.000  N
  N7       1.0000 0.73480  0.86690  0.75970  Biso   1.000  N
  N8       1.0000 0.75170  0.82390  0.84470  Biso   1.000  N
  N9       1.0000 0.64570  0.81490  0.74510  Biso   1.000  N
  N10      1.0000 0.62540  0.82940  0.84400  Biso   1.000  N
  N11      1.0000 0.61380  0.88440  0.76480  Biso   1.000  N
  N12      1.0000 0.70450  0.89060  0.86000  Biso   1.000  N
  N13      1.0000 0.62640  0.21620  0.75740  Biso   1.000  N
  N14      1.0000 0.71590  0.23160  0.84850  Biso   1.000  N
  N15      1.0000 0.75060  0.19610  0.75960  Biso   1.000  N
  N16      1.0000 0.77020  0.16410  0.85740  Biso   1.000  N
  N17      1.0000 0.66040  0.14540  0.76760  Biso   1.000  N
  N18      1.0000 0.64140  0.17520  0.85630  Biso   1.000  N
  O1       1.0000 0.36810  0.91490  0.94730  Biso   1.000  O
  O2       1.0000 0.42920  0.94010  0.91470  Biso   1.000  O
  O3       1.0000 0.40480  0.01112  0.67450  Biso   1.000  O
  O4       1.0000 0.37780  0.05570  0.62310  Biso   1.000  O
  O5       1.0000 0.46300  0.96019  0.63300  Biso   1.000  O
  O6       1.0000 0.53440  0.99106  0.68980  Biso   1.000  O
  O7       1.0000 0.71730  0.00143  0.94830  Biso   1.000  O
  O8       1.0000 0.80180  0.97880  0.99770  Biso   1.000  O
  O9       1.0000 0.56960  0.04926  0.64050  Biso   1.000  O
  O10      1.0000 0.50590  0.06472  0.68410  Biso   1.000  O
  O11      1.0000 0.48240  0.12340  0.91920  Biso   1.000  O
  O12      1.0000 0.51540  0.16270  0.98270  Biso   1.000  O
  Ru4      1.0000 0.67593  0.53120  0.78473  Biso   1.000  Ru
  Ru5      1.0000 0.17876  0.35172  0.80361  Biso   1.000  Ru
  Ru6      1.0000 0.19497  0.68785  0.80773  Biso   1.000  Ru
  Tb2      1.0000 0.96643  0.52209  0.61627  Biso   1.000  Tb
  C97      1.0000 0.73850  0.57640  0.88540  Biso   1.000  C
  H67      1.0000 0.76700  0.55990  0.89880  Biso   1.000  H
  C98      1.0000 0.74410  0.60380  0.91720  Biso   1.000  C
  H68      1.0000 0.77580  0.60640  0.95280  Biso   1.000  H
  C99      1.0000 0.70370  0.62760  0.89760  Biso   1.000  C
  H69      1.0000 0.70760  0.64680  0.92000  Biso   1.000  H
  C100     1.0000 0.65820  0.62470  0.84700  Biso   1.000  C
  H70      1.0000 0.63000  0.64140  0.83350  Biso   1.000  H
  C101     1.0000 0.65480  0.59630  0.81590  Biso   1.000  C
  C102     1.0000 0.60810  0.59050  0.75870  Biso   1.000  C
  C103     1.0000 0.56560  0.61290  0.73310  Biso   1.000  C
  H71      1.0000 0.56170  0.63270  0.75130  Biso   1.000  H
  C104     1.0000 0.52750  0.60330  0.67570  Biso   1.000  C
  H72      1.0000 0.49640  0.61750  0.65600  Biso   1.000  H
  C105     1.0000 0.53270  0.57550  0.64780  Biso   1.000  C
  H73      1.0000 0.50810  0.57060  0.60900  Biso   1.000  H
  C106     1.0000 0.57530  0.55530  0.67920  Biso   1.000  C
  H74      1.0000 0.57880  0.53500  0.66210  Biso   1.000  H
  C107     1.0000 0.60180  0.52570  0.86780  Biso   1.000  C
  H75      1.0000 0.61750  0.54600  0.88310  Biso   1.000  H
  C108     1.0000 0.56460  0.50920  0.89230  Biso   1.000  C
  H76      1.0000 0.55360  0.51910  0.92320  Biso   1.000  H
  C109     1.0000 0.54440  0.48070  0.87420  Biso   1.000  C
  H77      1.0000 0.52110  0.46930  0.89330  Biso   1.000  H
  C110     1.0000 0.55730  0.46740  0.82690  Biso   1.000  C
  H78      1.0000 0.54090  0.44720  0.81130  Biso   1.000  H
  C111     1.0000 0.59330  0.48330  0.80300  Biso   1.000  C
  C112     1.0000 0.61120  0.47130  0.75230  Biso   1.000  C
  C113     1.0000 0.59200  0.44130  0.72140  Biso   1.000  C
  H79      1.0000 0.56640  0.42770  0.73400  Biso   1.000  H
  C114     1.0000 0.60950  0.43220  0.67500  Biso   1.000  C
  H80      1.0000 0.59660  0.41250  0.65470  Biso   1.000  H
  C115     1.0000 0.64620  0.45250  0.65900  Biso   1.000  C
  H81      1.0000 0.65990  0.44680  0.62700  Biso   1.000  H
  C116     1.0000 0.66360  0.48060  0.68780  Biso   1.000  C
  H82      1.0000 0.68840  0.49430  0.67420  Biso   1.000  H
  C117     1.0000 0.74230  0.48610  0.88500  Biso   1.000  C
  H83      1.0000 0.71060  0.48890  0.90040  Biso   1.000  H
  C118     1.0000 0.78580  0.46490  0.91200  Biso   1.000  C
  H84      1.0000 0.78330  0.45260  0.94470  Biso   1.000  H
  C119     1.0000 0.83380  0.46110  0.89180  Biso   1.000  C
  C120     1.0000 0.83730  0.48030  0.84470  Biso   1.000  C
  H85      1.0000 0.87050  0.47920  0.83110  Biso   1.000  H
  C121     1.0000 0.79060  0.50120  0.81830  Biso   1.000  C
  C122     1.0000 0.78870  0.52200  0.76760  Biso   1.000  C
  C123     1.0000 0.83170  0.52090  0.74030  Biso   1.000  C
  H86      1.0000 0.86510  0.50740  0.75550  Biso   1.000  H
  C124     1.0000 0.82630  0.53960  0.69070  Biso   1.000  C
  C125     1.0000 0.77750  0.55960  0.67020  Biso   1.000  C
  H87      1.0000 0.77290  0.57330  0.63720  Biso   1.000  H
  C126     1.0000 0.73620  0.55890  0.69940  Biso   1.000  C
  H88      1.0000 0.70270  0.57240  0.68520  Biso   1.000  H
  C127     1.0000 0.88020  0.43630  0.91860  Biso   1.000  C
  C128     1.0000 0.87190  0.53570  0.66010  Biso   1.000  C
  C129     1.0000 0.22330  0.38790  0.71450  Biso   1.000  C
  H89      1.0000 0.18590  0.39800  0.70280  Biso   1.000  H
  C130     1.0000 0.25980  0.39540  0.68500  Biso   1.000  C
  H90      1.0000 0.24870  0.41030  0.65330  Biso   1.000  H
  C131     1.0000 0.31410  0.38110  0.70170  Biso   1.000  C
  H91      1.0000 0.34150  0.38580  0.68150  Biso   1.000  H
  C132     1.0000 0.32850  0.35960  0.74890  Biso   1.000  C
  H92      1.0000 0.36620  0.34970  0.76150  Biso   1.000  H
  C133     1.0000 0.28850  0.35280  0.77660  Biso   1.000  C
  C134     1.0000 0.29910  0.32930  0.82580  Biso   1.000  C
  C135     1.0000 0.35190  0.31380  0.85040  Biso   1.000  C
  H93      1.0000 0.38450  0.31840  0.83710  Biso   1.000  H
  C136     1.0000 0.35720  0.29130  0.89440  Biso   1.000  C
  H94      1.0000 0.39280  0.27980  0.91130  Biso   1.000  H
  C137     1.0000 0.31010  0.28620  0.91250  Biso   1.000  C
  H95      1.0000 0.31290  0.27100  0.94300  Biso   1.000  H
  C138     1.0000 0.25760  0.30270  0.88780  Biso   1.000  C
  H96      1.0000 0.22540  0.29860  0.90190  Biso   1.000  H
  C139     1.0000 0.15360  0.31010  0.69340  Biso   1.000  C
  H97      1.0000 0.17810  0.32470  0.68110  Biso   1.000  H
  C140     1.0000 0.12780  0.28480  0.65600  Biso   1.000  C
  H98      1.0000 0.13520  0.28200  0.61950  Biso   1.000  H
  C141     1.0000 0.09360  0.26510  0.67190  Biso   1.000  C
  H99      1.0000 0.07450  0.24860  0.64520  Biso   1.000  H
  C142     1.0000 0.08310  0.26710  0.72870  Biso   1.000  C
  H100     1.0000 0.06050  0.25170  0.74170  Biso   1.000  H
  C143     1.0000 0.11030  0.29440  0.76310  Biso   1.000  C
  C144     1.0000 0.09890  0.30150  0.81860  Biso   1.000  C
  C145     1.0000 0.06560  0.28420  0.84360  Biso   1.000  C
  H101     1.0000 0.04800  0.26480  0.82550  Biso   1.000  H
  C146     1.0000 0.05700  0.29400  0.89330  Biso   1.000  C
  H102     1.0000 0.03470  0.28110  0.91140  Biso   1.000  H
  C147     1.0000 0.08040  0.32300  0.91880  Biso   1.000  C
  H103     1.0000 0.07330  0.33080  0.95340  Biso   1.000  H
  C148     1.0000 0.11390  0.33980  0.89260  Biso   1.000  C
  H104     1.0000 0.13000  0.35980  0.90940  Biso   1.000  H
  C149     1.0000 0.06640  0.37870  0.71690  Biso   1.000  C
  H105     1.0000 0.05750  0.35720  0.70300  Biso   1.000  H
  C150     1.0000 0.03040  0.40420  0.68740  Biso   1.000  C
  H106     1.0000 0.99830  0.40000  0.65270  Biso   1.000  H
  C151     1.0000 0.04150  0.43520  0.70870  Biso   1.000  C
  C152     1.0000 0.08820  0.44010  0.76060  Biso   1.000  C
  H107     1.0000 0.09590  0.46120  0.77690  Biso   1.000  H
  C153     1.0000 0.12260  0.41520  0.78800  Biso   1.000  C
  C154     1.0000 0.17300  0.41810  0.84320  Biso   1.000  C
  C155     1.0000 0.18680  0.44620  0.87530  Biso   1.000  C
  H108     1.0000 0.16300  0.46490  0.86290  Biso   1.000  H
  C156     1.0000 0.23560  0.44740  0.92600  Biso   1.000  C
  C157     1.0000 0.26750  0.41920  0.94290  Biso   1.000  C
  H109     1.0000 0.30070  0.41910  0.97750  Biso   1.000  H
  C158     1.0000 0.25140  0.39100  0.90980  Biso   1.000  C
  H110     1.0000 0.27370  0.37190  0.92240  Biso   1.000  H
  C159     1.0000 0.01020  0.46360  0.67480  Biso   1.000  C
  C160     1.0000 0.25230  0.47880  0.96010  Biso   1.000  C
  C161     1.0000 0.08430  0.70630  0.70820  Biso   1.000  C
  H111     1.0000 0.08580  0.68490  0.69470  Biso   1.000  H
  C162     1.0000 0.03980  0.72600  0.67710  Biso   1.000  C
  H112     1.0000 0.00990  0.71810  0.64350  Biso   1.000  H
  C163     1.0000 0.03860  0.75770  0.69510  Biso   1.000  C
  H113     1.0000 0.00870  0.77210  0.67360  Biso   1.000  H
  C164     1.0000 0.08170  0.76760  0.74490  Biso   1.000  C
  H114     1.0000 0.08140  0.78910  0.75840  Biso   1.000  H
  C165     1.0000 0.12570  0.74670  0.77580  Biso   1.000  C
  C166     1.0000 0.17600  0.75530  0.82750  Biso   1.000  C
  C167     1.0000 0.18010  0.78570  0.85440  Biso   1.000  C
  H115     1.0000 0.15050  0.80150  0.83980  Biso   1.000  H
  C168     1.0000 0.22760  0.79160  0.90160  Biso   1.000  C
  H116     1.0000 0.23220  0.81220  0.91990  Biso   1.000  H
  C169     1.0000 0.27030  0.76760  0.92420  Biso   1.000  C
  H117     1.0000 0.30300  0.77190  0.95830  Biso   1.000  H
  C170     1.0000 0.26470  0.73760  0.89660  Biso   1.000  C
  H118     1.0000 0.29410  0.72160  0.91070  Biso   1.000  H
  C171     1.0000 0.23680  0.71140  0.70730  Biso   1.000  C
  H119     1.0000 0.19730  0.71830  0.68980  Biso   1.000  H
  C172     1.0000 0.27650  0.71770  0.67800  Biso   1.000  C
  H120     1.0000 0.26600  0.72950  0.64200  Biso   1.000  H
  C173     1.0000 0.33220  0.70610  0.70350  Biso   1.000  C
  H121     1.0000 0.36030  0.70880  0.68330  Biso   1.000  H
  C174     1.0000 0.34880  0.69080  0.75610  Biso   1.000  C
  H122     1.0000 0.38810  0.68370  0.77370  Biso   1.000  H
  C175     1.0000 0.30730  0.68590  0.78300  Biso   1.000  C
  C176     1.0000 0.31760  0.66730  0.83830  Biso   1.000  C
  C177     1.0000 0.37210  0.65350  0.86920  Biso   1.000  C
  H123     1.0000 0.40580  0.65650  0.85700  Biso   1.000  H
  C178     1.0000 0.37420  0.63540  0.91790  Biso   1.000  C
  H124     1.0000 0.41030  0.62550  0.93950  Biso   1.000  H
  C179     1.0000 0.32690  0.63120  0.93600  Biso   1.000  C
  H125     1.0000 0.32910  0.61790  0.96910  Biso   1.000  H
  C180     1.0000 0.27470  0.64660  0.90530  Biso   1.000  C
  H126     1.0000 0.24150  0.64460  0.91880  Biso   1.000  H
  C181     1.0000 0.17120  0.63160  0.72250  Biso   1.000  C
  H127     1.0000 0.20180  0.64040  0.70970  Biso   1.000  H
  C182     1.0000 0.14080  0.60450  0.69160  Biso   1.000  C
  H128     1.0000 0.15120  0.59480  0.66020  Biso   1.000  H
  C183     1.0000 0.09500  0.59300  0.70970  Biso   1.000  C
  C184     1.0000 0.08490  0.60630  0.75850  Biso   1.000  C
  H129     1.0000 0.05530  0.59750  0.77260  Biso   1.000  H
  C185     1.0000 0.11790  0.63250  0.78710  Biso   1.000  C
  C186     1.0000 0.10720  0.64800  0.83740  Biso   1.000  C
  C187     1.0000 0.06670  0.63830  0.86330  Biso   1.000  C
  H130     1.0000 0.04380  0.61950  0.84970  Biso   1.000  H
  C188     1.0000 0.05930  0.65630  0.91040  Biso   1.000  C
  C189     1.0000 0.09410  0.68260  0.92960  Biso   1.000  C
  H131     1.0000 0.09040  0.69490  0.96190  Biso   1.000  H
  C190     1.0000 0.13430  0.69140  0.90230  Biso   1.000  C
  H132     1.0000 0.15810  0.70980  0.91650  Biso   1.000  H
  C191     1.0000 0.05420  0.56680  0.67640  Biso   1.000  C
  C192     1.0000 0.01430  0.64640  0.93860  Biso   1.000  C
  N19      1.0000 0.69380  0.57190  0.83530  Biso   1.000  N
  N20      1.0000 0.61380  0.56190  0.73380  Biso   1.000  N
  N21      1.0000 0.61560  0.51220  0.82100  Biso   1.000  N
  N22      1.0000 0.64800  0.49030  0.73410  Biso   1.000  N
  N23      1.0000 0.74270  0.50360  0.83700  Biso   1.000  N
  N24      1.0000 0.74030  0.54070  0.74620  Biso   1.000  N
  N25      1.0000 0.23480  0.36690  0.75970  Biso   1.000  N
  N26      1.0000 0.25170  0.32390  0.84470  Biso   1.000  N
  N27      1.0000 0.14570  0.31490  0.74510  Biso   1.000  N
  N28      1.0000 0.12540  0.32940  0.84400  Biso   1.000  N
  N29      1.0000 0.11380  0.38440  0.76480  Biso   1.000  N
  N30      1.0000 0.20450  0.39060  0.86000  Biso   1.000  N
  N31      1.0000 0.12640  0.71620  0.75740  Biso   1.000  N
  N32      1.0000 0.21590  0.73160  0.84850  Biso   1.000  N
  N33      1.0000 0.25060  0.69610  0.75960  Biso   1.000  N
  N34      1.0000 0.27020  0.66410  0.85740  Biso   1.000  N
  N35      1.0000 0.16040  0.64540  0.76760  Biso   1.000  N
  N36      1.0000 0.14140  0.67520  0.85630  Biso   1.000  N
  O13      1.0000 0.86810  0.41490  0.94730  Biso   1.000  O
  O14      1.0000 0.92920  0.44010  0.91470  Biso   1.000  O
  O15      1.0000 0.90480  0.51112  0.67450  Biso   1.000  O
  O16      1.0000 0.87780  0.55570  0.62310  Biso   1.000  O
  O17      1.0000 0.96300  0.46019  0.63300  Biso   1.000  O
  O18      1.0000 0.03440  0.49106  0.68980  Biso   1.000  O
  O19      1.0000 0.21730  0.50143  0.94830  Biso   1.000  O
  O20      1.0000 0.30180  0.47880  0.99770  Biso   1.000  O
  O21      1.0000 0.06960  0.54926  0.64050  Biso   1.000  O
  O22      1.0000 0.00590  0.56472  0.68410  Biso   1.000  O
  O23      1.0000 0.98240  0.62340  0.91920  Biso   1.000  O
  O24      1.0000 0.01540  0.66270  0.98270  Biso   1.000  O
  Ru7      1.0000 0.82407  0.03120  0.71527  Biso   1.000  Ru
  Ru8      1.0000 0.32124  0.85172  0.69639  Biso   1.000  Ru
  Ru9      1.0000 0.30503  0.18785  0.69227  Biso   1.000  Ru
  Tb3      1.0000 0.53357  0.02209  0.88373  Biso   1.000  Tb
  C193     1.0000 0.76150  0.07640  0.61460  Biso   1.000  C
  H133     1.0000 0.73300  0.05990  0.60120  Biso   1.000  H
  C194     1.0000 0.75590  0.10380  0.58280  Biso   1.000  C
  H134     1.0000 0.72420  0.10640  0.54720  Biso   1.000  H
  C195     1.0000 0.79630  0.12760  0.60240  Biso   1.000  C
  H135     1.0000 0.79240  0.14680  0.58000  Biso   1.000  H
  C196     1.0000 0.84180  0.12470  0.65300  Biso   1.000  C
  H136     1.0000 0.87000  0.14140  0.66650  Biso   1.000  H
  C197     1.0000 0.84520  0.09630  0.68410  Biso   1.000  C
  C198     1.0000 0.89190  0.09050  0.74130  Biso   1.000  C
  C199     1.0000 0.93440  0.11290  0.76690  Biso   1.000  C
  H137     1.0000 0.93830  0.13270  0.74870  Biso   1.000  H
  C200     1.0000 0.97250  0.10330  0.82430  Biso   1.000  C
  H138     1.0000 0.00360  0.11750  0.84400  Biso   1.000  H
  C201     1.0000 0.96730  0.07550  0.85220  Biso   1.000  C
  H139     1.0000 0.99190  0.07060  0.89100  Biso   1.000  H
  C202     1.0000 0.92470  0.05530  0.82080  Biso   1.000  C
  H140     1.0000 0.92120  0.03500  0.83790  Biso   1.000  H
  C203     1.0000 0.89820  0.02570  0.63220  Biso   1.000  C
  H141     1.0000 0.88250  0.04600  0.61690  Biso   1.000  H
  C204     1.0000 0.93540  0.00920  0.60770  Biso   1.000  C
  H142     1.0000 0.94640  0.01910  0.57680  Biso   1.000  H
  C205     1.0000 0.95560  0.98070  0.62580  Biso   1.000  C
  H143     1.0000 0.97890  0.96930  0.60670  Biso   1.000  H
  C206     1.0000 0.94270  0.96740  0.67310  Biso   1.000  C
  H144     1.0000 0.95910  0.94720  0.68870  Biso   1.000  H
  C207     1.0000 0.90670  0.98330  0.69700  Biso   1.000  C
  C208     1.0000 0.88880  0.97130  0.74770  Biso   1.000  C
  C209     1.0000 0.90800  0.94130  0.77860  Biso   1.000  C
  H145     1.0000 0.93360  0.92770  0.76600  Biso   1.000  H
  C210     1.0000 0.89050  0.93220  0.82500  Biso   1.000  C
  H146     1.0000 0.90340  0.91250  0.84530  Biso   1.000  H
  C211     1.0000 0.85380  0.95250  0.84100  Biso   1.000  C
  H147     1.0000 0.84010  0.94680  0.87300  Biso   1.000  H
  C212     1.0000 0.83640  0.98060  0.81220  Biso   1.000  C
  H148     1.0000 0.81160  0.99430  0.82580  Biso   1.000  H
  C213     1.0000 0.75770  0.98610  0.61500  Biso   1.000  C
  H149     1.0000 0.78940  0.98890  0.59960  Biso   1.000  H
  C214     1.0000 0.71420  0.96490  0.58800  Biso   1.000  C
  H150     1.0000 0.71670  0.95260  0.55530  Biso   1.000  H
  C215     1.0000 0.66620  0.96110  0.60820  Biso   1.000  C
  C216     1.0000 0.66270  0.98030  0.65530  Biso   1.000  C
  H151     1.0000 0.62950  0.97920  0.66890  Biso   1.000  H
  C217     1.0000 0.70940  0.00120  0.68170  Biso   1.000  C
  C218     1.0000 0.71130  0.02200  0.73240  Biso   1.000  C
  C219     1.0000 0.66830  0.02090  0.75970  Biso   1.000  C
  H152     1.0000 0.63490  0.00740  0.74450  Biso   1.000  H
  C220     1.0000 0.67370  0.03960  0.80930  Biso   1.000  C
  C221     1.0000 0.72250  0.05960  0.82980  Biso   1.000  C
  H153     1.0000 0.72710  0.07330  0.86280  Biso   1.000  H
  C222     1.0000 0.76380  0.05890  0.80060  Biso   1.000  C
  H154     1.0000 0.79730  0.07240  0.81480  Biso   1.000  H
  C223     1.0000 0.61980  0.93630  0.58140  Biso   1.000  C
  C224     1.0000 0.62810  0.03570  0.83990  Biso   1.000  C
  C225     1.0000 0.27670  0.88790  0.78550  Biso   1.000  C
  H155     1.0000 0.31410  0.89800  0.79720  Biso   1.000  H
  C226     1.0000 0.24020  0.89540  0.81500  Biso   1.000  C
  H156     1.0000 0.25130  0.91030  0.84670  Biso   1.000  H
  C227     1.0000 0.18590  0.88110  0.79830  Biso   1.000  C
  H157     1.0000 0.15850  0.88580  0.81850  Biso   1.000  H
  C228     1.0000 0.17150  0.85960  0.75110  Biso   1.000  C
  H158     1.0000 0.13380  0.84970  0.73850  Biso   1.000  H
  C229     1.0000 0.21150  0.85280  0.72340  Biso   1.000  C
  C230     1.0000 0.20090  0.82930  0.67420  Biso   1.000  C
  C231     1.0000 0.14810  0.81380  0.64960  Biso   1.000  C
  H159     1.0000 0.11550  0.81840  0.66290  Biso   1.000  H
  C232     1.0000 0.14280  0.79130  0.60560  Biso   1.000  C
  H160     1.0000 0.10720  0.77980  0.58870  Biso   1.000  H
  C233     1.0000 0.18990  0.78620  0.58750  Biso   1.000  C
  H161     1.0000 0.18710  0.77100  0.55700  Biso   1.000  H
  C234     1.0000 0.24240  0.80270  0.61220  Biso   1.000  C
  H162     1.0000 0.27460  0.79860  0.59810  Biso   1.000  H
  C235     1.0000 0.34640  0.81010  0.80660  Biso   1.000  C
  H163     1.0000 0.32190  0.82470  0.81890  Biso   1.000  H
  C236     1.0000 0.37220  0.78480  0.84400  Biso   1.000  C
  H164     1.0000 0.36480  0.78200  0.88050  Biso   1.000  H
  C237     1.0000 0.40640  0.76510  0.82810  Biso   1.000  C
  H165     1.0000 0.42550  0.74860  0.85480  Biso   1.000  H
  C238     1.0000 0.41690  0.76710  0.77130  Biso   1.000  C
  H166     1.0000 0.43950  0.75170  0.75830  Biso   1.000  H
  C239     1.0000 0.38970  0.79440  0.73690  Biso   1.000  C
  C240     1.0000 0.40110  0.80150  0.68140  Biso   1.000  C
  C241     1.0000 0.43440  0.78420  0.65640  Biso   1.000  C
  H167     1.0000 0.45200  0.76480  0.67450  Biso   1.000  H
  C242     1.0000 0.44300  0.79400  0.60670  Biso   1.000  C
  H168     1.0000 0.46530  0.78110  0.58860  Biso   1.000  H
  C243     1.0000 0.41960  0.82300  0.58120  Biso   1.000  C
  H169     1.0000 0.42670  0.83080  0.54660  Biso   1.000  H
  C244     1.0000 0.38610  0.83980  0.60740  Biso   1.000  C
  H170     1.0000 0.37000  0.85980  0.59060  Biso   1.000  H
  C245     1.0000 0.43360  0.87870  0.78310  Biso   1.000  C
  H171     1.0000 0.44250  0.85720  0.79700  Biso   1.000  H
  C246     1.0000 0.46960  0.90420  0.81260  Biso   1.000  C
  H172     1.0000 0.50170  0.90000  0.84730  Biso   1.000  H
  C247     1.0000 0.45850  0.93520  0.79130  Biso   1.000  C
  C248     1.0000 0.41180  0.94010  0.73940  Biso   1.000  C
  H173     1.0000 0.40410  0.96120  0.72310  Biso   1.000  H
  C249     1.0000 0.37740  0.91520  0.71200  Biso   1.000  C
  C250     1.0000 0.32700  0.91810  0.65680  Biso   1.000  C
  C251     1.0000 0.31320  0.94620  0.62470  Biso   1.000  C
  H174     1.0000 0.33700  0.96490  0.63710  Biso   1.000  H
  C252     1.0000 0.26440  0.94740  0.57400  Biso   1.000  C
  C253     1.0000 0.23250  0.91920  0.55710  Biso   1.000  C
  H175     1.0000 0.19930  0.91910  0.52250  Biso   1.000  H
  C254     1.0000 0.24860  0.89100  0.59020  Biso   1.000  C
  H176     1.0000 0.22630  0.87190  0.57760  Biso   1.000  H
  C255     1.0000 0.48980  0.96360  0.82520  Biso   1.000  C
  C256     1.0000 0.24770  0.97880  0.53990  Biso   1.000  C
  C257     1.0000 0.41570  0.20630  0.79180  Biso   1.000  C
  H177     1.0000 0.41420  0.18490  0.80530  Biso   1.000  H
  C258     1.0000 0.46020  0.22600  0.82290  Biso   1.000  C
  H178     1.0000 0.49010  0.21810  0.85650  Biso   1.000  H
  C259     1.0000 0.46140  0.25770  0.80490  Biso   1.000  C
  H179     1.0000 0.49130  0.27210  0.82640  Biso   1.000  H
  C260     1.0000 0.41830  0.26760  0.75510  Biso   1.000  C
  H180     1.0000 0.41860  0.28910  0.74160  Biso   1.000  H
  C261     1.0000 0.37430  0.24670  0.72420  Biso   1.000  C
  C262     1.0000 0.32400  0.25530  0.67250  Biso   1.000  C
  C263     1.0000 0.31990  0.28570  0.64560  Biso   1.000  C
  H181     1.0000 0.34950  0.30150  0.66020  Biso   1.000  H
  C264     1.0000 0.27240  0.29160  0.59840  Biso   1.000  C
  H182     1.0000 0.26780  0.31220  0.58010  Biso   1.000  H
  C265     1.0000 0.22970  0.26760  0.57580  Biso   1.000  C
  H183     1.0000 0.19700  0.27190  0.54170  Biso   1.000  H
  C266     1.0000 0.23530  0.23760  0.60340  Biso   1.000  C
  H184     1.0000 0.20590  0.22160  0.58930  Biso   1.000  H
  C267     1.0000 0.26320  0.21140  0.79270  Biso   1.000  C
  H185     1.0000 0.30270  0.21830  0.81020  Biso   1.000  H
  C268     1.0000 0.22350  0.21770  0.82200  Biso   1.000  C
  H186     1.0000 0.23400  0.22950  0.85800  Biso   1.000  H
  C269     1.0000 0.16780  0.20610  0.79650  Biso   1.000  C
  H187     1.0000 0.13970  0.20880  0.81670  Biso   1.000  H
  C270     1.0000 0.15120  0.19080  0.74390  Biso   1.000  C
  H188     1.0000 0.11190  0.18370  0.72630  Biso   1.000  H
  C271     1.0000 0.19270  0.18590  0.71700  Biso   1.000  C
  C272     1.0000 0.18240  0.16730  0.66170  Biso   1.000  C
  C273     1.0000 0.12790  0.15350  0.63080  Biso   1.000  C
  H189     1.0000 0.09420  0.15650  0.64300  Biso   1.000  H
  C274     1.0000 0.12580  0.13540  0.58210  Biso   1.000  C
  H190     1.0000 0.08970  0.12550  0.56050  Biso   1.000  H
  C275     1.0000 0.17310  0.13120  0.56400  Biso   1.000  C
  H191     1.0000 0.17090  0.11790  0.53090  Biso   1.000  H
  C276     1.0000 0.22530  0.14660  0.59470  Biso   1.000  C
  H192     1.0000 0.25850  0.14460  0.58120  Biso   1.000  H
  C277     1.0000 0.32880  0.13160  0.77750  Biso   1.000  C
  H193     1.0000 0.29820  0.14040  0.79030  Biso   1.000  H
  C278     1.0000 0.35920  0.10450  0.80840  Biso   1.000  C
  H194     1.0000 0.34880  0.09480  0.83980  Biso   1.000  H
  C279     1.0000 0.40500  0.09300  0.79030  Biso   1.000  C
  C280     1.0000 0.41510  0.10630  0.74150  Biso   1.000  C
  H195     1.0000 0.44470  0.09750  0.72740  Biso   1.000  H
  C281     1.0000 0.38210  0.13250  0.71290  Biso   1.000  C
  C282     1.0000 0.39280  0.14800  0.66260  Biso   1.000  C
  C283     1.0000 0.43330  0.13830  0.63670  Biso   1.000  C
  H196     1.0000 0.45620  0.11950  0.65030  Biso   1.000  H
  C284     1.0000 0.44070  0.15630  0.58960  Biso   1.000  C
  C285     1.0000 0.40590  0.18260  0.57040  Biso   1.000  C
  H197     1.0000 0.40960  0.19490  0.53810  Biso   1.000  H
  C286     1.0000 0.36570  0.19140  0.59770  Biso   1.000  C
  H198     1.0000 0.34190  0.20980  0.58350  Biso   1.000  H
  C287     1.0000 0.44580  0.06680  0.82360  Biso   1.000  C
  C288     1.0000 0.48570  0.14640  0.56140  Biso   1.000  C
  N37      1.0000 0.80620  0.07190  0.66470  Biso   1.000  N
  N38      1.0000 0.88620  0.06190  0.76620  Biso   1.000  N
  N39      1.0000 0.88440  0.01220  0.67900  Biso   1.000  N
  N40      1.0000 0.85200  0.99030  0.76590  Biso   1.000  N
  N41      1.0000 0.75730  0.00360  0.66300  Biso   1.000  N
  N42      1.0000 0.75970  0.04070  0.75380  Biso   1.000  N
  N43      1.0000 0.26520  0.86690  0.74030  Biso   1.000  N
  N44      1.0000 0.24830  0.82390  0.65530  Biso   1.000  N
  N45      1.0000 0.35430  0.81490  0.75490  Biso   1.000  N
  N46      1.0000 0.37460  0.82940  0.65600  Biso   1.000  N
  N47      1.0000 0.38620  0.88440  0.73520  Biso   1.000  N
  N48      1.0000 0.29550  0.89060  0.64000  Biso   1.000  N
  N49      1.0000 0.37360  0.21620  0.74260  Biso   1.000  N
  N50      1.0000 0.28410  0.23160  0.65150  Biso   1.000  N
  N51      1.0000 0.24940  0.19610  0.74040  Biso   1.000  N
  N52      1.0000 0.22980  0.16410  0.64260  Biso   1.000  N
  N53      1.0000 0.33960  0.14540  0.73240  Biso   1.000  N
  N54      1.0000 0.35860  0.17520  0.64370  Biso   1.000  N
  O25      1.0000 0.63190  0.91490  0.55270  Biso   1.000  O
  O26      1.0000 0.57080  0.94010  0.58530  Biso   1.000  O
  O27      1.0000 0.59520  0.01112  0.82550  Biso   1.000  O
  O28      1.0000 0.62220  0.05570  0.87690  Biso   1.000  O
  O29      1.0000 0.53700  0.96019  0.86700  Biso   1.000  O
  O30      1.0000 0.46560  0.99106  0.81020  Biso   1.000  O
  O31      1.0000 0.28270  0.00143  0.55170  Biso   1.000  O
  O32      1.0000 0.19820  0.97880  0.50230  Biso   1.000  O
  O33      1.0000 0.43040  0.04926  0.85950  Biso   1.000  O
  O34      1.0000 0.49410  0.06472  0.81590  Biso   1.000  O
  O35      1.0000 0.51760  0.12340  0.58080  Biso   1.000  O
  O36      1.0000 0.48460  0.16270  0.51730  Biso   1.000  O
  Ru10     1.0000 0.32407  0.53120  0.71527  Biso   1.000  Ru
  Ru11     1.0000 0.82124  0.35172  0.69639  Biso   1.000  Ru
  Ru12     1.0000 0.80503  0.68785  0.69227  Biso   1.000  Ru
  Tb4      1.0000 0.03357  0.52209  0.88373  Biso   1.000  Tb
  C289     1.0000 0.26150  0.57640  0.61460  Biso   1.000  C
  H199     1.0000 0.23300  0.55990  0.60120  Biso   1.000  H
  C290     1.0000 0.25590  0.60380  0.58280  Biso   1.000  C
  H200     1.0000 0.22420  0.60640  0.54720  Biso   1.000  H
  C291     1.0000 0.29630  0.62760  0.60240  Biso   1.000  C
  H201     1.0000 0.29240  0.64680  0.58000  Biso   1.000  H
  C292     1.0000 0.34180  0.62470  0.65300  Biso   1.000  C
  H202     1.0000 0.37000  0.64140  0.66650  Biso   1.000  H
  C293     1.0000 0.34520  0.59630  0.68410  Biso   1.000  C
  C294     1.0000 0.39190  0.59050  0.74130  Biso   1.000  C
  C295     1.0000 0.43440  0.61290  0.76690  Biso   1.000  C
  H203     1.0000 0.43830  0.63270  0.74870  Biso   1.000  H
  C296     1.0000 0.47250  0.60330  0.82430  Biso   1.000  C
  H204     1.0000 0.50360  0.61750  0.84400  Biso   1.000  H
  C297     1.0000 0.46730  0.57550  0.85220  Biso   1.000  C
  H205     1.0000 0.49190  0.57060  0.89100  Biso   1.000  H
  C298     1.0000 0.42470  0.55530  0.82080  Biso   1.000  C
  H206     1.0000 0.42120  0.53500  0.83790  Biso   1.000  H
  C299     1.0000 0.39820  0.52570  0.63220  Biso   1.000  C
  H207     1.0000 0.38250  0.54600  0.61690  Biso   1.000  H
  C300     1.0000 0.43540  0.50920  0.60770  Biso   1.000  C
  H208     1.0000 0.44640  0.51910  0.57680  Biso   1.000  H
  C301     1.0000 0.45560  0.48070  0.62580  Biso   1.000  C
  H209     1.0000 0.47890  0.46930  0.60670  Biso   1.000  H
  C302     1.0000 0.44270  0.46740  0.67310  Biso   1.000  C
  H210     1.0000 0.45910  0.44720  0.68870  Biso   1.000  H
  C303     1.0000 0.40670  0.48330  0.69700  Biso   1.000  C
  C304     1.0000 0.38880  0.47130  0.74770  Biso   1.000  C
  C305     1.0000 0.40800  0.44130  0.77860  Biso   1.000  C
  H211     1.0000 0.43360  0.42770  0.76600  Biso   1.000  H
  C306     1.0000 0.39050  0.43220  0.82500  Biso   1.000  C
  H212     1.0000 0.40340  0.41250  0.84530  Biso   1.000  H
  C307     1.0000 0.35380  0.45250  0.84100  Biso   1.000  C
  H213     1.0000 0.34010  0.44680  0.87300  Biso   1.000  H
  C308     1.0000 0.33640  0.48060  0.81220  Biso   1.000  C
  H214     1.0000 0.31160  0.49430  0.82580  Biso   1.000  H
  C309     1.0000 0.25770  0.48610  0.61500  Biso   1.000  C
  H215     1.0000 0.28940  0.48890  0.59960  Biso   1.000  H
  C310     1.0000 0.21420  0.46490  0.58800  Biso   1.000  C
  H216     1.0000 0.21670  0.45260  0.55530  Biso   1.000  H
  C311     1.0000 0.16620  0.46110  0.60820  Biso   1.000  C
  C312     1.0000 0.16270  0.48030  0.65530  Biso   1.000  C
  H217     1.0000 0.12950  0.47920  0.66890  Biso   1.000  H
  C313     1.0000 0.20940  0.50120  0.68170  Biso   1.000  C
  C314     1.0000 0.21130  0.52200  0.73240  Biso   1.000  C
  C315     1.0000 0.16830  0.52090  0.75970  Biso   1.000  C
  H218     1.0000 0.13490  0.50740  0.74450  Biso   1.000  H
  C316     1.0000 0.17370  0.53960  0.80930  Biso   1.000  C
  C317     1.0000 0.22250  0.55960  0.82980  Biso   1.000  C
  H219     1.0000 0.22710  0.57330  0.86280  Biso   1.000  H
  C318     1.0000 0.26380  0.55890  0.80060  Biso   1.000  C
  H220     1.0000 0.29730  0.57240  0.81480  Biso   1.000  H
  C319     1.0000 0.11980  0.43630  0.58140  Biso   1.000  C
  C320     1.0000 0.12810  0.53570  0.83990  Biso   1.000  C
  C321     1.0000 0.77670  0.38790  0.78550  Biso   1.000  C
  H221     1.0000 0.81410  0.39800  0.79720  Biso   1.000  H
  C322     1.0000 0.74020  0.39540  0.81500  Biso   1.000  C
  H222     1.0000 0.75130  0.41030  0.84670  Biso   1.000  H
  C323     1.0000 0.68590  0.38110  0.79830  Biso   1.000  C
  H223     1.0000 0.65850  0.38580  0.81850  Biso   1.000  H
  C324     1.0000 0.67150  0.35960  0.75110  Biso   1.000  C
  H224     1.0000 0.63380  0.34970  0.73850  Biso   1.000  H
  C325     1.0000 0.71150  0.35280  0.72340  Biso   1.000  C
  C326     1.0000 0.70090  0.32930  0.67420  Biso   1.000  C
  C327     1.0000 0.64810  0.31380  0.64960  Biso   1.000  C
  H225     1.0000 0.61550  0.31840  0.66290  Biso   1.000  H
  C328     1.0000 0.64280  0.29130  0.60560  Biso   1.000  C
  H226     1.0000 0.60720  0.27980  0.58870  Biso   1.000  H
  C329     1.0000 0.68990  0.28620  0.58750  Biso   1.000  C
  H227     1.0000 0.68710  0.27100  0.55700  Biso   1.000  H
  C330     1.0000 0.74240  0.30270  0.61220  Biso   1.000  C
  H228     1.0000 0.77460  0.29860  0.59810  Biso   1.000  H
  C331     1.0000 0.84640  0.31010  0.80660  Biso   1.000  C
  H229     1.0000 0.82190  0.32470  0.81890  Biso   1.000  H
  C332     1.0000 0.87220  0.28480  0.84400  Biso   1.000  C
  H230     1.0000 0.86480  0.28200  0.88050  Biso   1.000  H
  C333     1.0000 0.90640  0.26510  0.82810  Biso   1.000  C
  H231     1.0000 0.92550  0.24860  0.85480  Biso   1.000  H
  C334     1.0000 0.91690  0.26710  0.77130  Biso   1.000  C
  H232     1.0000 0.93950  0.25170  0.75830  Biso   1.000  H
  C335     1.0000 0.88970  0.29440  0.73690  Biso   1.000  C
  C336     1.0000 0.90110  0.30150  0.68140  Biso   1.000  C
  C337     1.0000 0.93440  0.28420  0.65640  Biso   1.000  C
  H233     1.0000 0.95200  0.26480  0.67450  Biso   1.000  H
  C338     1.0000 0.94300  0.29400  0.60670  Biso   1.000  C
  H234     1.0000 0.96530  0.28110  0.58860  Biso   1.000  H
  C339     1.0000 0.91960  0.32300  0.58120  Biso   1.000  C
  H235     1.0000 0.92670  0.33080  0.54660  Biso   1.000  H
  C340     1.0000 0.88610  0.33980  0.60740  Biso   1.000  C
  H236     1.0000 0.87000  0.35980  0.59060  Biso   1.000  H
  C341     1.0000 0.93360  0.37870  0.78310  Biso   1.000  C
  H237     1.0000 0.94250  0.35720  0.79700  Biso   1.000  H
  C342     1.0000 0.96960  0.40420  0.81260  Biso   1.000  C
  H238     1.0000 0.00170  0.40000  0.84730  Biso   1.000  H
  C343     1.0000 0.95850  0.43520  0.79130  Biso   1.000  C
  C344     1.0000 0.91180  0.44010  0.73940  Biso   1.000  C
  H239     1.0000 0.90410  0.46120  0.72310  Biso   1.000  H
  C345     1.0000 0.87740  0.41520  0.71200  Biso   1.000  C
  C346     1.0000 0.82700  0.41810  0.65680  Biso   1.000  C
  C347     1.0000 0.81320  0.44620  0.62470  Biso   1.000  C
  H240     1.0000 0.83700  0.46490  0.63710  Biso   1.000  H
  C348     1.0000 0.76440  0.44740  0.57400  Biso   1.000  C
  C349     1.0000 0.73250  0.41920  0.55710  Biso   1.000  C
  H241     1.0000 0.69930  0.41910  0.52250  Biso   1.000  H
  C350     1.0000 0.74860  0.39100  0.59020  Biso   1.000  C
  H242     1.0000 0.72630  0.37190  0.57760  Biso   1.000  H
  C351     1.0000 0.98980  0.46360  0.82520  Biso   1.000  C
  C352     1.0000 0.74770  0.47880  0.53990  Biso   1.000  C
  C353     1.0000 0.91570  0.70630  0.79180  Biso   1.000  C
  H243     1.0000 0.91420  0.68490  0.80530  Biso   1.000  H
  C354     1.0000 0.96020  0.72600  0.82290  Biso   1.000  C
  H244     1.0000 0.99010  0.71810  0.85650  Biso   1.000  H
  C355     1.0000 0.96140  0.75770  0.80490  Biso   1.000  C
  H245     1.0000 0.99130  0.77210  0.82640  Biso   1.000  H
  C356     1.0000 0.91830  0.76760  0.75510  Biso   1.000  C
  H246     1.0000 0.91860  0.78910  0.74160  Biso   1.000  H
  C357     1.0000 0.87430  0.74670  0.72420  Biso   1.000  C
  C358     1.0000 0.82400  0.75530  0.67250  Biso   1.000  C
  C359     1.0000 0.81990  0.78570  0.64560  Biso   1.000  C
  H247     1.0000 0.84950  0.80150  0.66020  Biso   1.000  H
  C360     1.0000 0.77240  0.79160  0.59840  Biso   1.000  C
  H248     1.0000 0.76780  0.81220  0.58010  Biso   1.000  H
  C361     1.0000 0.72970  0.76760  0.57580  Biso   1.000  C
  H249     1.0000 0.69700  0.77190  0.54170  Biso   1.000  H
  C362     1.0000 0.73530  0.73760  0.60340  Biso   1.000  C
  H250     1.0000 0.70590  0.72160  0.58930  Biso   1.000  H
  C363     1.0000 0.76320  0.71140  0.79270  Biso   1.000  C
  H251     1.0000 0.80270  0.71830  0.81020  Biso   1.000  H
  C364     1.0000 0.72350  0.71770  0.82200  Biso   1.000  C
  H252     1.0000 0.73400  0.72950  0.85800  Biso   1.000  H
  C365     1.0000 0.66780  0.70610  0.79650  Biso   1.000  C
  H253     1.0000 0.63970  0.70880  0.81670  Biso   1.000  H
  C366     1.0000 0.65120  0.69080  0.74390  Biso   1.000  C
  H254     1.0000 0.61190  0.68370  0.72630  Biso   1.000  H
  C367     1.0000 0.69270  0.68590  0.71700  Biso   1.000  C
  C368     1.0000 0.68240  0.66730  0.66170  Biso   1.000  C
  C369     1.0000 0.62790  0.65350  0.63080  Biso   1.000  C
  H255     1.0000 0.59420  0.65650  0.64300  Biso   1.000  H
  C370     1.0000 0.62580  0.63540  0.58210  Biso   1.000  C
  H256     1.0000 0.58970  0.62550  0.56050  Biso   1.000  H
  C371     1.0000 0.67310  0.63120  0.56400  Biso   1.000  C
  H257     1.0000 0.67090  0.61790  0.53090  Biso   1.000  H
  C372     1.0000 0.72530  0.64660  0.59470  Biso   1.000  C
  H258     1.0000 0.75850  0.64460  0.58120  Biso   1.000  H
  C373     1.0000 0.82880  0.63160  0.77750  Biso   1.000  C
  H259     1.0000 0.79820  0.64040  0.79030  Biso   1.000  H
  C374     1.0000 0.85920  0.60450  0.80840  Biso   1.000  C
  H260     1.0000 0.84880  0.59480  0.83980  Biso   1.000  H
  C375     1.0000 0.90500  0.59300  0.79030  Biso   1.000  C
  C376     1.0000 0.91510  0.60630  0.74150  Biso   1.000  C
  H261     1.0000 0.94470  0.59750  0.72740  Biso   1.000  H
  C377     1.0000 0.88210  0.63250  0.71290  Biso   1.000  C
  C378     1.0000 0.89280  0.64800  0.66260  Biso   1.000  C
  C379     1.0000 0.93330  0.63830  0.63670  Biso   1.000  C
  H262     1.0000 0.95620  0.61950  0.65030  Biso   1.000  H
  C380     1.0000 0.94070  0.65630  0.58960  Biso   1.000  C
  C381     1.0000 0.90590  0.68260  0.57040  Biso   1.000  C
  H263     1.0000 0.90960  0.69490  0.53810  Biso   1.000  H
  C382     1.0000 0.86570  0.69140  0.59770  Biso   1.000  C
  H264     1.0000 0.84190  0.70980  0.58350  Biso   1.000  H
  C383     1.0000 0.94580  0.56680  0.82360  Biso   1.000  C
  C384     1.0000 0.98570  0.64640  0.56140  Biso   1.000  C
  N55      1.0000 0.30620  0.57190  0.66470  Biso   1.000  N
  N56      1.0000 0.38620  0.56190  0.76620  Biso   1.000  N
  N57      1.0000 0.38440  0.51220  0.67900  Biso   1.000  N
  N58      1.0000 0.35200  0.49030  0.76590  Biso   1.000  N
  N59      1.0000 0.25730  0.50360  0.66300  Biso   1.000  N
  N60      1.0000 0.25970  0.54070  0.75380  Biso   1.000  N
  N61      1.0000 0.76520  0.36690  0.74030  Biso   1.000  N
  N62      1.0000 0.74830  0.32390  0.65530  Biso   1.000  N
  N63      1.0000 0.85430  0.31490  0.75490  Biso   1.000  N
  N64      1.0000 0.87460  0.32940  0.65600  Biso   1.000  N
  N65      1.0000 0.88620  0.38440  0.73520  Biso   1.000  N
  N66      1.0000 0.79550  0.39060  0.64000  Biso   1.000  N
  N67      1.0000 0.87360  0.71620  0.74260  Biso   1.000  N
  N68      1.0000 0.78410  0.73160  0.65150  Biso   1.000  N
  N69      1.0000 0.74940  0.69610  0.74040  Biso   1.000  N
  N70      1.0000 0.72980  0.66410  0.64260  Biso   1.000  N
  N71      1.0000 0.83960  0.64540  0.73240  Biso   1.000  N
  N72      1.0000 0.85860  0.67520  0.64370  Biso   1.000  N
  O37      1.0000 0.13190  0.41490  0.55270  Biso   1.000  O
  O38      1.0000 0.07080  0.44010  0.58530  Biso   1.000  O
  O39      1.0000 0.09520  0.51112  0.82550  Biso   1.000  O
  O40      1.0000 0.12220  0.55570  0.87690  Biso   1.000  O
  O41      1.0000 0.03700  0.46019  0.86700  Biso   1.000  O
  O42      1.0000 0.96560  0.49106  0.81020  Biso   1.000  O
  O43      1.0000 0.78270  0.50143  0.55170  Biso   1.000  O
  O44      1.0000 0.69820  0.47880  0.50230  Biso   1.000  O
  O45      1.0000 0.93040  0.54926  0.85950  Biso   1.000  O
  O46      1.0000 0.99410  0.56472  0.81590  Biso   1.000  O
  O47      1.0000 0.01760  0.62340  0.58080  Biso   1.000  O
  O48      1.0000 0.98460  0.66270  0.51730  Biso   1.000  O
  Ru13     1.0000 0.82407  0.96880  0.21527  Biso   1.000  Ru
  Ru14     1.0000 0.32124  0.14828  0.19639  Biso   1.000  Ru
  Ru15     1.0000 0.30503  0.81215  0.19227  Biso   1.000  Ru
  Tb5      1.0000 0.53357  0.97791  0.38373  Biso   1.000  Tb
  C385     1.0000 0.76150  0.92360  0.11460  Biso   1.000  C
  H265     1.0000 0.73300  0.94010  0.10120  Biso   1.000  H
  C386     1.0000 0.75590  0.89620  0.08280  Biso   1.000  C
  H266     1.0000 0.72420  0.89360  0.04720  Biso   1.000  H
  C387     1.0000 0.79630  0.87240  0.10240  Biso   1.000  C
  H267     1.0000 0.79240  0.85320  0.08000  Biso   1.000  H
  C388     1.0000 0.84180  0.87530  0.15300  Biso   1.000  C
  H268     1.0000 0.87000  0.85860  0.16650  Biso   1.000  H
  C389     1.0000 0.84520  0.90370  0.18410  Biso   1.000  C
  C390     1.0000 0.89190  0.90950  0.24130  Biso   1.000  C
  C391     1.0000 0.93440  0.88710  0.26690  Biso   1.000  C
  H269     1.0000 0.93830  0.86730  0.24870  Biso   1.000  H
  C392     1.0000 0.97250  0.89670  0.32430  Biso   1.000  C
  H270     1.0000 0.00360  0.88250  0.34400  Biso   1.000  H
  C393     1.0000 0.96730  0.92450  0.35220  Biso   1.000  C
  H271     1.0000 0.99190  0.92940  0.39100  Biso   1.000  H
  C394     1.0000 0.92470  0.94470  0.32080  Biso   1.000  C
  H272     1.0000 0.92120  0.96500  0.33790  Biso   1.000  H
  C395     1.0000 0.89820  0.97430  0.13220  Biso   1.000  C
  H273     1.0000 0.88250  0.95400  0.11690  Biso   1.000  H
  C396     1.0000 0.93540  0.99080  0.10770  Biso   1.000  C
  H274     1.0000 0.94640  0.98090  0.07680  Biso   1.000  H
  C397     1.0000 0.95560  0.01930  0.12580  Biso   1.000  C
  H275     1.0000 0.97890  0.03070  0.10670  Biso   1.000  H
  C398     1.0000 0.94270  0.03260  0.17310  Biso   1.000  C
  H276     1.0000 0.95910  0.05280  0.18870  Biso   1.000  H
  C399     1.0000 0.90670  0.01670  0.19700  Biso   1.000  C
  C400     1.0000 0.88880  0.02870  0.24770  Biso   1.000  C
  C401     1.0000 0.90800  0.05870  0.27860  Biso   1.000  C
  H277     1.0000 0.93360  0.07230  0.26600  Biso   1.000  H
  C402     1.0000 0.89050  0.06780  0.32500  Biso   1.000  C
  H278     1.0000 0.90340  0.08750  0.34530  Biso   1.000  H
  C403     1.0000 0.85380  0.04750  0.34100  Biso   1.000  C
  H279     1.0000 0.84010  0.05320  0.37300  Biso   1.000  H
  C404     1.0000 0.83640  0.01940  0.31220  Biso   1.000  C
  H280     1.0000 0.81160  0.00570  0.32580  Biso   1.000  H
  C405     1.0000 0.75770  0.01390  0.11500  Biso   1.000  C
  H281     1.0000 0.78940  0.01110  0.09960  Biso   1.000  H
  C406     1.0000 0.71420  0.03510  0.08800  Biso   1.000  C
  H282     1.0000 0.71670  0.04740  0.05530  Biso   1.000  H
  C407     1.0000 0.66620  0.03890  0.10820  Biso   1.000  C
  C408     1.0000 0.66270  0.01970  0.15530  Biso   1.000  C
  H283     1.0000 0.62950  0.02080  0.16890  Biso   1.000  H
  C409     1.0000 0.70940  0.99880  0.18170  Biso   1.000  C
  C410     1.0000 0.71130  0.97800  0.23240  Biso   1.000  C
  C411     1.0000 0.66830  0.97910  0.25970  Biso   1.000  C
  H284     1.0000 0.63490  0.99260  0.24450  Biso   1.000  H
  C412     1.0000 0.67370  0.96040  0.30930  Biso   1.000  C
  C413     1.0000 0.72250  0.94040  0.32980  Biso   1.000  C
  H285     1.0000 0.72710  0.92670  0.36280  Biso   1.000  H
  C414     1.0000 0.76380  0.94110  0.30060  Biso   1.000  C
  H286     1.0000 0.79730  0.92760  0.31480  Biso   1.000  H
  C415     1.0000 0.61980  0.06370  0.08140  Biso   1.000  C
  C416     1.0000 0.62810  0.96430  0.33990  Biso   1.000  C
  C417     1.0000 0.27670  0.11210  0.28550  Biso   1.000  C
  H287     1.0000 0.31410  0.10200  0.29720  Biso   1.000  H
  C418     1.0000 0.24020  0.10460  0.31500  Biso   1.000  C
  H288     1.0000 0.25130  0.08970  0.34670  Biso   1.000  H
  C419     1.0000 0.18590  0.11890  0.29830  Biso   1.000  C
  H289     1.0000 0.15850  0.11420  0.31850  Biso   1.000  H
  C420     1.0000 0.17150  0.14040  0.25110  Biso   1.000  C
  H290     1.0000 0.13380  0.15030  0.23850  Biso   1.000  H
  C421     1.0000 0.21150  0.14720  0.22340  Biso   1.000  C
  C422     1.0000 0.20090  0.17070  0.17420  Biso   1.000  C
  C423     1.0000 0.14810  0.18620  0.14960  Biso   1.000  C
  H291     1.0000 0.11550  0.18160  0.16290  Biso   1.000  H
  C424     1.0000 0.14280  0.20870  0.10560  Biso   1.000  C
  H292     1.0000 0.10720  0.22020  0.08870  Biso   1.000  H
  C425     1.0000 0.18990  0.21380  0.08750  Biso   1.000  C
  H293     1.0000 0.18710  0.22900  0.05700  Biso   1.000  H
  C426     1.0000 0.24240  0.19730  0.11220  Biso   1.000  C
  H294     1.0000 0.27460  0.20140  0.09810  Biso   1.000  H
  C427     1.0000 0.34640  0.18990  0.30660  Biso   1.000  C
  H295     1.0000 0.32190  0.17530  0.31890  Biso   1.000  H
  C428     1.0000 0.37220  0.21520  0.34400  Biso   1.000  C
  H296     1.0000 0.36480  0.21800  0.38050  Biso   1.000  H
  C429     1.0000 0.40640  0.23490  0.32810  Biso   1.000  C
  H297     1.0000 0.42550  0.25140  0.35480  Biso   1.000  H
  C430     1.0000 0.41690  0.23290  0.27130  Biso   1.000  C
  H298     1.0000 0.43950  0.24830  0.25830  Biso   1.000  H
  C431     1.0000 0.38970  0.20560  0.23690  Biso   1.000  C
  C432     1.0000 0.40110  0.19850  0.18140  Biso   1.000  C
  C433     1.0000 0.43440  0.21580  0.15640  Biso   1.000  C
  H299     1.0000 0.45200  0.23520  0.17450  Biso   1.000  H
  C434     1.0000 0.44300  0.20600  0.10670  Biso   1.000  C
  H300     1.0000 0.46530  0.21890  0.08860  Biso   1.000  H
  C435     1.0000 0.41960  0.17700  0.08120  Biso   1.000  C
  H301     1.0000 0.42670  0.16920  0.04660  Biso   1.000  H
  C436     1.0000 0.38610  0.16020  0.10740  Biso   1.000  C
  H302     1.0000 0.37000  0.14020  0.09060  Biso   1.000  H
  C437     1.0000 0.43360  0.12130  0.28310  Biso   1.000  C
  H303     1.0000 0.44250  0.14280  0.29700  Biso   1.000  H
  C438     1.0000 0.46960  0.09580  0.31260  Biso   1.000  C
  H304     1.0000 0.50170  0.10000  0.34730  Biso   1.000  H
  C439     1.0000 0.45850  0.06480  0.29130  Biso   1.000  C
  C440     1.0000 0.41180  0.05990  0.23940  Biso   1.000  C
  H305     1.0000 0.40410  0.03880  0.22310  Biso   1.000  H
  C441     1.0000 0.37740  0.08480  0.21200  Biso   1.000  C
  C442     1.0000 0.32700  0.08190  0.15680  Biso   1.000  C
  C443     1.0000 0.31320  0.05380  0.12470  Biso   1.000  C
  H306     1.0000 0.33700  0.03510  0.13710  Biso   1.000  H
  C444     1.0000 0.26440  0.05260  0.07400  Biso   1.000  C
  C445     1.0000 0.23250  0.08080  0.05710  Biso   1.000  C
  H307     1.0000 0.19930  0.08090  0.02250  Biso   1.000  H
  C446     1.0000 0.24860  0.10900  0.09020  Biso   1.000  C
  H308     1.0000 0.22630  0.12810  0.07760  Biso   1.000  H
  C447     1.0000 0.48980  0.03640  0.32520  Biso   1.000  C
  C448     1.0000 0.24770  0.02120  0.03990  Biso   1.000  C
  C449     1.0000 0.41570  0.79370  0.29180  Biso   1.000  C
  H309     1.0000 0.41420  0.81510  0.30530  Biso   1.000  H
  C450     1.0000 0.46020  0.77400  0.32290  Biso   1.000  C
  H310     1.0000 0.49010  0.78190  0.35650  Biso   1.000  H
  C451     1.0000 0.46140  0.74230  0.30490  Biso   1.000  C
  H311     1.0000 0.49130  0.72790  0.32640  Biso   1.000  H
  C452     1.0000 0.41830  0.73240  0.25510  Biso   1.000  C
  H312     1.0000 0.41860  0.71090  0.24160  Biso   1.000  H
  C453     1.0000 0.37430  0.75330  0.22420  Biso   1.000  C
  C454     1.0000 0.32400  0.74470  0.17250  Biso   1.000  C
  C455     1.0000 0.31990  0.71430  0.14560  Biso   1.000  C
  H313     1.0000 0.34950  0.69850  0.16020  Biso   1.000  H
  C456     1.0000 0.27240  0.70840  0.09840  Biso   1.000  C
  H314     1.0000 0.26780  0.68780  0.08010  Biso   1.000  H
  C457     1.0000 0.22970  0.73240  0.07580  Biso   1.000  C
  H315     1.0000 0.19700  0.72810  0.04170  Biso   1.000  H
  C458     1.0000 0.23530  0.76240  0.10340  Biso   1.000  C
  H316     1.0000 0.20590  0.77840  0.08930  Biso   1.000  H
  C459     1.0000 0.26320  0.78860  0.29270  Biso   1.000  C
  H317     1.0000 0.30270  0.78170  0.31020  Biso   1.000  H
  C460     1.0000 0.22350  0.78230  0.32200  Biso   1.000  C
  H318     1.0000 0.23400  0.77050  0.35800  Biso   1.000  H
  C461     1.0000 0.16780  0.79390  0.29650  Biso   1.000  C
  H319     1.0000 0.13970  0.79120  0.31670  Biso   1.000  H
  C462     1.0000 0.15120  0.80920  0.24390  Biso   1.000  C
  H320     1.0000 0.11190  0.81630  0.22630  Biso   1.000  H
  C463     1.0000 0.19270  0.81410  0.21700  Biso   1.000  C
  C464     1.0000 0.18240  0.83270  0.16170  Biso   1.000  C
  C465     1.0000 0.12790  0.84650  0.13080  Biso   1.000  C
  H321     1.0000 0.09420  0.84350  0.14300  Biso   1.000  H
  C466     1.0000 0.12580  0.86460  0.08210  Biso   1.000  C
  H322     1.0000 0.08970  0.87450  0.06050  Biso   1.000  H
  C467     1.0000 0.17310  0.86880  0.06400  Biso   1.000  C
  H323     1.0000 0.17090  0.88210  0.03090  Biso   1.000  H
  C468     1.0000 0.22530  0.85340  0.09470  Biso   1.000  C
  H324     1.0000 0.25850  0.85540  0.08120  Biso   1.000  H
  C469     1.0000 0.32880  0.86840  0.27750  Biso   1.000  C
  H325     1.0000 0.29820  0.85960  0.29030  Biso   1.000  H
  C470     1.0000 0.35920  0.89550  0.30840  Biso   1.000  C
  H326     1.0000 0.34880  0.90520  0.33980  Biso   1.000  H
  C471     1.0000 0.40500  0.90700  0.29030  Biso   1.000  C
  C472     1.0000 0.41510  0.89370  0.24150  Biso   1.000  C
  H327     1.0000 0.44470  0.90250  0.22740  Biso   1.000  H
  C473     1.0000 0.38210  0.86750  0.21290  Biso   1.000  C
  C474     1.0000 0.39280  0.85200  0.16260  Biso   1.000  C
  C475     1.0000 0.43330  0.86170  0.13670  Biso   1.000  C
  H328     1.0000 0.45620  0.88050  0.15030  Biso   1.000  H
  C476     1.0000 0.44070  0.84370  0.08960  Biso   1.000  C
  C477     1.0000 0.40590  0.81740  0.07040  Biso   1.000  C
  H329     1.0000 0.40960  0.80510  0.03810  Biso   1.000  H
  C478     1.0000 0.36570  0.80860  0.09770  Biso   1.000  C
  H330     1.0000 0.34190  0.79020  0.08350  Biso   1.000  H
  C479     1.0000 0.44580  0.93320  0.32360  Biso   1.000  C
  C480     1.0000 0.48570  0.85360  0.06140  Biso   1.000  C
  N73      1.0000 0.80620  0.92810  0.16470  Biso   1.000  N
  N74      1.0000 0.88620  0.93810  0.26620  Biso   1.000  N
  N75      1.0000 0.88440  0.98780  0.17900  Biso   1.000  N
  N76      1.0000 0.85200  0.00970  0.26590  Biso   1.000  N
  N77      1.0000 0.75730  0.99640  0.16300  Biso   1.000  N
  N78      1.0000 0.75970  0.95930  0.25380  Biso   1.000  N
  N79      1.0000 0.26520  0.13310  0.24030  Biso   1.000  N
  N80      1.0000 0.24830  0.17610  0.15530  Biso   1.000  N
  N81      1.0000 0.35430  0.18510  0.25490  Biso   1.000  N
  N82      1.0000 0.37460  0.17060  0.15600  Biso   1.000  N
  N83      1.0000 0.38620  0.11560  0.23520  Biso   1.000  N
  N84      1.0000 0.29550  0.10940  0.14000  Biso   1.000  N
  N85      1.0000 0.37360  0.78380  0.24260  Biso   1.000  N
  N86      1.0000 0.28410  0.76840  0.15150  Biso   1.000  N
  N87      1.0000 0.24940  0.80390  0.24040  Biso   1.000  N
  N88      1.0000 0.22980  0.83590  0.14260  Biso   1.000  N
  N89      1.0000 0.33960  0.85460  0.23240  Biso   1.000  N
  N90      1.0000 0.35860  0.82480  0.14370  Biso   1.000  N
  O49      1.0000 0.63190  0.08510  0.05270  Biso   1.000  O
  O50      1.0000 0.57080  0.05990  0.08530  Biso   1.000  O
  O51      1.0000 0.59520  0.98888  0.32550  Biso   1.000  O
  O52      1.0000 0.62220  0.94430  0.37690  Biso   1.000  O
  O53      1.0000 0.53700  0.03981  0.36700  Biso   1.000  O
  O54      1.0000 0.46560  0.00894  0.31020  Biso   1.000  O
  O55      1.0000 0.28270  0.99857  0.05170  Biso   1.000  O
  O56      1.0000 0.19820  0.02120  0.00230  Biso   1.000  O
  O57      1.0000 0.43040  0.95074  0.35950  Biso   1.000  O
  O58      1.0000 0.49410  0.93528  0.31590  Biso   1.000  O
  O59      1.0000 0.51760  0.87660  0.08080  Biso   1.000  O
  O60      1.0000 0.48460  0.83730  0.01730  Biso   1.000  O
  Ru16     1.0000 0.32407  0.46880  0.21527  Biso   1.000  Ru
  Ru17     1.0000 0.82124  0.64828  0.19639  Biso   1.000  Ru
  Ru18     1.0000 0.80503  0.31215  0.19227  Biso   1.000  Ru
  Tb6      1.0000 0.03357  0.47791  0.38373  Biso   1.000  Tb
  C481     1.0000 0.26150  0.42360  0.11460  Biso   1.000  C
  H331     1.0000 0.23300  0.44010  0.10120  Biso   1.000  H
  C482     1.0000 0.25590  0.39620  0.08280  Biso   1.000  C
  H332     1.0000 0.22420  0.39360  0.04720  Biso   1.000  H
  C483     1.0000 0.29630  0.37240  0.10240  Biso   1.000  C
  H333     1.0000 0.29240  0.35320  0.08000  Biso   1.000  H
  C484     1.0000 0.34180  0.37530  0.15300  Biso   1.000  C
  H334     1.0000 0.37000  0.35860  0.16650  Biso   1.000  H
  C485     1.0000 0.34520  0.40370  0.18410  Biso   1.000  C
  C486     1.0000 0.39190  0.40950  0.24130  Biso   1.000  C
  C487     1.0000 0.43440  0.38710  0.26690  Biso   1.000  C
  H335     1.0000 0.43830  0.36730  0.24870  Biso   1.000  H
  C488     1.0000 0.47250  0.39670  0.32430  Biso   1.000  C
  H336     1.0000 0.50360  0.38250  0.34400  Biso   1.000  H
  C489     1.0000 0.46730  0.42450  0.35220  Biso   1.000  C
  H337     1.0000 0.49190  0.42940  0.39100  Biso   1.000  H
  C490     1.0000 0.42470  0.44470  0.32080  Biso   1.000  C
  H338     1.0000 0.42120  0.46500  0.33790  Biso   1.000  H
  C491     1.0000 0.39820  0.47430  0.13220  Biso   1.000  C
  H339     1.0000 0.38250  0.45400  0.11690  Biso   1.000  H
  C492     1.0000 0.43540  0.49080  0.10770  Biso   1.000  C
  H340     1.0000 0.44640  0.48090  0.07680  Biso   1.000  H
  C493     1.0000 0.45560  0.51930  0.12580  Biso   1.000  C
  H341     1.0000 0.47890  0.53070  0.10670  Biso   1.000  H
  C494     1.0000 0.44270  0.53260  0.17310  Biso   1.000  C
  H342     1.0000 0.45910  0.55280  0.18870  Biso   1.000  H
  C495     1.0000 0.40670  0.51670  0.19700  Biso   1.000  C
  C496     1.0000 0.38880  0.52870  0.24770  Biso   1.000  C
  C497     1.0000 0.40800  0.55870  0.27860  Biso   1.000  C
  H343     1.0000 0.43360  0.57230  0.26600  Biso   1.000  H
  C498     1.0000 0.39050  0.56780  0.32500  Biso   1.000  C
  H344     1.0000 0.40340  0.58750  0.34530  Biso   1.000  H
  C499     1.0000 0.35380  0.54750  0.34100  Biso   1.000  C
  H345     1.0000 0.34010  0.55320  0.37300  Biso   1.000  H
  C500     1.0000 0.33640  0.51940  0.31220  Biso   1.000  C
  H346     1.0000 0.31160  0.50570  0.32580  Biso   1.000  H
  C501     1.0000 0.25770  0.51390  0.11500  Biso   1.000  C
  H347     1.0000 0.28940  0.51110  0.09960  Biso   1.000  H
  C502     1.0000 0.21420  0.53510  0.08800  Biso   1.000  C
  H348     1.0000 0.21670  0.54740  0.05530  Biso   1.000  H
  C503     1.0000 0.16620  0.53890  0.10820  Biso   1.000  C
  C504     1.0000 0.16270  0.51970  0.15530  Biso   1.000  C
  H349     1.0000 0.12950  0.52080  0.16890  Biso   1.000  H
  C505     1.0000 0.20940  0.49880  0.18170  Biso   1.000  C
  C506     1.0000 0.21130  0.47800  0.23240  Biso   1.000  C
  C507     1.0000 0.16830  0.47910  0.25970  Biso   1.000  C
  H350     1.0000 0.13490  0.49260  0.24450  Biso   1.000  H
  C508     1.0000 0.17370  0.46040  0.30930  Biso   1.000  C
  C509     1.0000 0.22250  0.44040  0.32980  Biso   1.000  C
  H351     1.0000 0.22710  0.42670  0.36280  Biso   1.000  H
  C510     1.0000 0.26380  0.44110  0.30060  Biso   1.000  C
  H352     1.0000 0.29730  0.42760  0.31480  Biso   1.000  H
  C511     1.0000 0.11980  0.56370  0.08140  Biso   1.000  C
  C512     1.0000 0.12810  0.46430  0.33990  Biso   1.000  C
  C513     1.0000 0.77670  0.61210  0.28550  Biso   1.000  C
  H353     1.0000 0.81410  0.60200  0.29720  Biso   1.000  H
  C514     1.0000 0.74020  0.60460  0.31500  Biso   1.000  C
  H354     1.0000 0.75130  0.58970  0.34670  Biso   1.000  H
  C515     1.0000 0.68590  0.61890  0.29830  Biso   1.000  C
  H355     1.0000 0.65850  0.61420  0.31850  Biso   1.000  H
  C516     1.0000 0.67150  0.64040  0.25110  Biso   1.000  C
  H356     1.0000 0.63380  0.65030  0.23850  Biso   1.000  H
  C517     1.0000 0.71150  0.64720  0.22340  Biso   1.000  C
  C518     1.0000 0.70090  0.67070  0.17420  Biso   1.000  C
  C519     1.0000 0.64810  0.68620  0.14960  Biso   1.000  C
  H357     1.0000 0.61550  0.68160  0.16290  Biso   1.000  H
  C520     1.0000 0.64280  0.70870  0.10560  Biso   1.000  C
  H358     1.0000 0.60720  0.72020  0.08870  Biso   1.000  H
  C521     1.0000 0.68990  0.71380  0.08750  Biso   1.000  C
  H359     1.0000 0.68710  0.72900  0.05700  Biso   1.000  H
  C522     1.0000 0.74240  0.69730  0.11220  Biso   1.000  C
  H360     1.0000 0.77460  0.70140  0.09810  Biso   1.000  H
  C523     1.0000 0.84640  0.68990  0.30660  Biso   1.000  C
  H361     1.0000 0.82190  0.67530  0.31890  Biso   1.000  H
  C524     1.0000 0.87220  0.71520  0.34400  Biso   1.000  C
  H362     1.0000 0.86480  0.71800  0.38050  Biso   1.000  H
  C525     1.0000 0.90640  0.73490  0.32810  Biso   1.000  C
  H363     1.0000 0.92550  0.75140  0.35480  Biso   1.000  H
  C526     1.0000 0.91690  0.73290  0.27130  Biso   1.000  C
  H364     1.0000 0.93950  0.74830  0.25830  Biso   1.000  H
  C527     1.0000 0.88970  0.70560  0.23690  Biso   1.000  C
  C528     1.0000 0.90110  0.69850  0.18140  Biso   1.000  C
  C529     1.0000 0.93440  0.71580  0.15640  Biso   1.000  C
  H365     1.0000 0.95200  0.73520  0.17450  Biso   1.000  H
  C530     1.0000 0.94300  0.70600  0.10670  Biso   1.000  C
  H366     1.0000 0.96530  0.71890  0.08860  Biso   1.000  H
  C531     1.0000 0.91960  0.67700  0.08120  Biso   1.000  C
  H367     1.0000 0.92670  0.66920  0.04660  Biso   1.000  H
  C532     1.0000 0.88610  0.66020  0.10740  Biso   1.000  C
  H368     1.0000 0.87000  0.64020  0.09060  Biso   1.000  H
  C533     1.0000 0.93360  0.62130  0.28310  Biso   1.000  C
  H369     1.0000 0.94250  0.64280  0.29700  Biso   1.000  H
  C534     1.0000 0.96960  0.59580  0.31260  Biso   1.000  C
  H370     1.0000 0.00170  0.60000  0.34730  Biso   1.000  H
  C535     1.0000 0.95850  0.56480  0.29130  Biso   1.000  C
  C536     1.0000 0.91180  0.55990  0.23940  Biso   1.000  C
  H371     1.0000 0.90410  0.53880  0.22310  Biso   1.000  H
  C537     1.0000 0.87740  0.58480  0.21200  Biso   1.000  C
  C538     1.0000 0.82700  0.58190  0.15680  Biso   1.000  C
  C539     1.0000 0.81320  0.55380  0.12470  Biso   1.000  C
  H372     1.0000 0.83700  0.53510  0.13710  Biso   1.000  H
  C540     1.0000 0.76440  0.55260  0.07400  Biso   1.000  C
  C541     1.0000 0.73250  0.58080  0.05710  Biso   1.000  C
  H373     1.0000 0.69930  0.58090  0.02250  Biso   1.000  H
  C542     1.0000 0.74860  0.60900  0.09020  Biso   1.000  C
  H374     1.0000 0.72630  0.62810  0.07760  Biso   1.000  H
  C543     1.0000 0.98980  0.53640  0.32520  Biso   1.000  C
  C544     1.0000 0.74770  0.52120  0.03990  Biso   1.000  C
  C545     1.0000 0.91570  0.29370  0.29180  Biso   1.000  C
  H375     1.0000 0.91420  0.31510  0.30530  Biso   1.000  H
  C546     1.0000 0.96020  0.27400  0.32290  Biso   1.000  C
  H376     1.0000 0.99010  0.28190  0.35650  Biso   1.000  H
  C547     1.0000 0.96140  0.24230  0.30490  Biso   1.000  C
  H377     1.0000 0.99130  0.22790  0.32640  Biso   1.000  H
  C548     1.0000 0.91830  0.23240  0.25510  Biso   1.000  C
  H378     1.0000 0.91860  0.21090  0.24160  Biso   1.000  H
  C549     1.0000 0.87430  0.25330  0.22420  Biso   1.000  C
  C550     1.0000 0.82400  0.24470  0.17250  Biso   1.000  C
  C551     1.0000 0.81990  0.21430  0.14560  Biso   1.000  C
  H379     1.0000 0.84950  0.19850  0.16020  Biso   1.000  H
  C552     1.0000 0.77240  0.20840  0.09840  Biso   1.000  C
  H380     1.0000 0.76780  0.18780  0.08010  Biso   1.000  H
  C553     1.0000 0.72970  0.23240  0.07580  Biso   1.000  C
  H381     1.0000 0.69700  0.22810  0.04170  Biso   1.000  H
  C554     1.0000 0.73530  0.26240  0.10340  Biso   1.000  C
  H382     1.0000 0.70590  0.27840  0.08930  Biso   1.000  H
  C555     1.0000 0.76320  0.28860  0.29270  Biso   1.000  C
  H383     1.0000 0.80270  0.28170  0.31020  Biso   1.000  H
  C556     1.0000 0.72350  0.28230  0.32200  Biso   1.000  C
  H384     1.0000 0.73400  0.27050  0.35800  Biso   1.000  H
  C557     1.0000 0.66780  0.29390  0.29650  Biso   1.000  C
  H385     1.0000 0.63970  0.29120  0.31670  Biso   1.000  H
  C558     1.0000 0.65120  0.30920  0.24390  Biso   1.000  C
  H386     1.0000 0.61190  0.31630  0.22630  Biso   1.000  H
  C559     1.0000 0.69270  0.31410  0.21700  Biso   1.000  C
  C560     1.0000 0.68240  0.33270  0.16170  Biso   1.000  C
  C561     1.0000 0.62790  0.34650  0.13080  Biso   1.000  C
  H387     1.0000 0.59420  0.34350  0.14300  Biso   1.000  H
  C562     1.0000 0.62580  0.36460  0.08210  Biso   1.000  C
  H388     1.0000 0.58970  0.37450  0.06050  Biso   1.000  H
  C563     1.0000 0.67310  0.36880  0.06400  Biso   1.000  C
  H389     1.0000 0.67090  0.38210  0.03090  Biso   1.000  H
  C564     1.0000 0.72530  0.35340  0.09470  Biso   1.000  C
  H390     1.0000 0.75850  0.35540  0.08120  Biso   1.000  H
  C565     1.0000 0.82880  0.36840  0.27750  Biso   1.000  C
  H391     1.0000 0.79820  0.35960  0.29030  Biso   1.000  H
  C566     1.0000 0.85920  0.39550  0.30840  Biso   1.000  C
  H392     1.0000 0.84880  0.40520  0.33980  Biso   1.000  H
  C567     1.0000 0.90500  0.40700  0.29030  Biso   1.000  C
  C568     1.0000 0.91510  0.39370  0.24150  Biso   1.000  C
  H393     1.0000 0.94470  0.40250  0.22740  Biso   1.000  H
  C569     1.0000 0.88210  0.36750  0.21290  Biso   1.000  C
  C570     1.0000 0.89280  0.35200  0.16260  Biso   1.000  C
  C571     1.0000 0.93330  0.36170  0.13670  Biso   1.000  C
  H394     1.0000 0.95620  0.38050  0.15030  Biso   1.000  H
  C572     1.0000 0.94070  0.34370  0.08960  Biso   1.000  C
  C573     1.0000 0.90590  0.31740  0.07040  Biso   1.000  C
  H395     1.0000 0.90960  0.30510  0.03810  Biso   1.000  H
  C574     1.0000 0.86570  0.30860  0.09770  Biso   1.000  C
  H396     1.0000 0.84190  0.29020  0.08350  Biso   1.000  H
  C575     1.0000 0.94580  0.43320  0.32360  Biso   1.000  C
  C576     1.0000 0.98570  0.35360  0.06140  Biso   1.000  C
  N91      1.0000 0.30620  0.42810  0.16470  Biso   1.000  N
  N92      1.0000 0.38620  0.43810  0.26620  Biso   1.000  N
  N93      1.0000 0.38440  0.48780  0.17900  Biso   1.000  N
  N94      1.0000 0.35200  0.50970  0.26590  Biso   1.000  N
  N95      1.0000 0.25730  0.49640  0.16300  Biso   1.000  N
  N96      1.0000 0.25970  0.45930  0.25380  Biso   1.000  N
  N97      1.0000 0.76520  0.63310  0.24030  Biso   1.000  N
  N98      1.0000 0.74830  0.67610  0.15530  Biso   1.000  N
  N99      1.0000 0.85430  0.68510  0.25490  Biso   1.000  N
  N100     1.0000 0.87460  0.67060  0.15600  Biso   1.000  N
  N101     1.0000 0.88620  0.61560  0.23520  Biso   1.000  N
  N102     1.0000 0.79550  0.60940  0.14000  Biso   1.000  N
  N103     1.0000 0.87360  0.28380  0.24260  Biso   1.000  N
  N104     1.0000 0.78410  0.26840  0.15150  Biso   1.000  N
  N105     1.0000 0.74940  0.30390  0.24040  Biso   1.000  N
  N106     1.0000 0.72980  0.33590  0.14260  Biso   1.000  N
  N107     1.0000 0.83960  0.35460  0.23240  Biso   1.000  N
  N108     1.0000 0.85860  0.32480  0.14370  Biso   1.000  N
  O61      1.0000 0.13190  0.58510  0.05270  Biso   1.000  O
  O62      1.0000 0.07080  0.55990  0.08530  Biso   1.000  O
  O63      1.0000 0.09520  0.48888  0.32550  Biso   1.000  O
  O64      1.0000 0.12220  0.44430  0.37690  Biso   1.000  O
  O65      1.0000 0.03700  0.53981  0.36700  Biso   1.000  O
  O66      1.0000 0.96560  0.50894  0.31020  Biso   1.000  O
  O67      1.0000 0.78270  0.49857  0.05170  Biso   1.000  O
  O68      1.0000 0.69820  0.52120  0.00230  Biso   1.000  O
  O69      1.0000 0.93040  0.45074  0.35950  Biso   1.000  O
  O70      1.0000 0.99410  0.43528  0.31590  Biso   1.000  O
  O71      1.0000 0.01760  0.37660  0.08080  Biso   1.000  O
  O72      1.0000 0.98460  0.33730  0.01730  Biso   1.000  O
  Ru19     1.0000 0.17593  0.96880  0.28473  Biso   1.000  Ru
  Ru20     1.0000 0.67876  0.14828  0.30361  Biso   1.000  Ru
  Ru21     1.0000 0.69497  0.81215  0.30773  Biso   1.000  Ru
  Tb7      1.0000 0.46643  0.97791  0.11627  Biso   1.000  Tb
  C577     1.0000 0.23850  0.92360  0.38540  Biso   1.000  C
  H397     1.0000 0.26700  0.94010  0.39880  Biso   1.000  H
  C578     1.0000 0.24410  0.89620  0.41720  Biso   1.000  C
  H398     1.0000 0.27580  0.89360  0.45280  Biso   1.000  H
  C579     1.0000 0.20370  0.87240  0.39760  Biso   1.000  C
  H399     1.0000 0.20760  0.85320  0.42000  Biso   1.000  H
  C580     1.0000 0.15820  0.87530  0.34700  Biso   1.000  C
  H400     1.0000 0.13000  0.85860  0.33350  Biso   1.000  H
  C581     1.0000 0.15480  0.90370  0.31590  Biso   1.000  C
  C582     1.0000 0.10810  0.90950  0.25870  Biso   1.000  C
  C583     1.0000 0.06560  0.88710  0.23310  Biso   1.000  C
  H401     1.0000 0.06170  0.86730  0.25130  Biso   1.000  H
  C584     1.0000 0.02750  0.89670  0.17570  Biso   1.000  C
  H402     1.0000 0.99640  0.88250  0.15600  Biso   1.000  H
  C585     1.0000 0.03270  0.92450  0.14780  Biso   1.000  C
  H403     1.0000 0.00810  0.92940  0.10900  Biso   1.000  H
  C586     1.0000 0.07530  0.94470  0.17920  Biso   1.000  C
  H404     1.0000 0.07880  0.96500  0.16210  Biso   1.000  H
  C587     1.0000 0.10180  0.97430  0.36780  Biso   1.000  C
  H405     1.0000 0.11750  0.95400  0.38310  Biso   1.000  H
  C588     1.0000 0.06460  0.99080  0.39230  Biso   1.000  C
  H406     1.0000 0.05360  0.98090  0.42320  Biso   1.000  H
  C589     1.0000 0.04440  0.01930  0.37420  Biso   1.000  C
  H407     1.0000 0.02110  0.03070  0.39330  Biso   1.000  H
  C590     1.0000 0.05730  0.03260  0.32690  Biso   1.000  C
  H408     1.0000 0.04090  0.05280  0.31130  Biso   1.000  H
  C591     1.0000 0.09330  0.01670  0.30300  Biso   1.000  C
  C592     1.0000 0.11120  0.02870  0.25230  Biso   1.000  C
  C593     1.0000 0.09200  0.05870  0.22140  Biso   1.000  C
  H409     1.0000 0.06640  0.07230  0.23400  Biso   1.000  H
  C594     1.0000 0.10950  0.06780  0.17500  Biso   1.000  C
  H410     1.0000 0.09660  0.08750  0.15470  Biso   1.000  H
  C595     1.0000 0.14620  0.04750  0.15900  Biso   1.000  C
  H411     1.0000 0.15990  0.05320  0.12700  Biso   1.000  H
  C596     1.0000 0.16360  0.01940  0.18780  Biso   1.000  C
  H412     1.0000 0.18840  0.00570  0.17420  Biso   1.000  H
  C597     1.0000 0.24230  0.01390  0.38500  Biso   1.000  C
  H413     1.0000 0.21060  0.01110  0.40040  Biso   1.000  H
  C598     1.0000 0.28580  0.03510  0.41200  Biso   1.000  C
  H414     1.0000 0.28330  0.04740  0.44470  Biso   1.000  H
  C599     1.0000 0.33380  0.03890  0.39180  Biso   1.000  C
  C600     1.0000 0.33730  0.01970  0.34470  Biso   1.000  C
  H415     1.0000 0.37050  0.02080  0.33110  Biso   1.000  H
  C601     1.0000 0.29060  0.99880  0.31830  Biso   1.000  C
  C602     1.0000 0.28870  0.97800  0.26760  Biso   1.000  C
  C603     1.0000 0.33170  0.97910  0.24030  Biso   1.000  C
  H416     1.0000 0.36510  0.99260  0.25550  Biso   1.000  H
  C604     1.0000 0.32630  0.96040  0.19070  Biso   1.000  C
  C605     1.0000 0.27750  0.94040  0.17020  Biso   1.000  C
  H417     1.0000 0.27290  0.92670  0.13720  Biso   1.000  H
  C606     1.0000 0.23620  0.94110  0.19940  Biso   1.000  C
  H418     1.0000 0.20270  0.92760  0.18520  Biso   1.000  H
  C607     1.0000 0.38020  0.06370  0.41860  Biso   1.000  C
  C608     1.0000 0.37190  0.96430  0.16010  Biso   1.000  C
  C609     1.0000 0.72330  0.11210  0.21450  Biso   1.000  C
  H419     1.0000 0.68590  0.10200  0.20280  Biso   1.000  H
  C610     1.0000 0.75980  0.10460  0.18500  Biso   1.000  C
  H420     1.0000 0.74870  0.08970  0.15330  Biso   1.000  H
  C611     1.0000 0.81410  0.11890  0.20170  Biso   1.000  C
  H421     1.0000 0.84150  0.11420  0.18150  Biso   1.000  H
  C612     1.0000 0.82850  0.14040  0.24890  Biso   1.000  C
  H422     1.0000 0.86620  0.15030  0.26150  Biso   1.000  H
  C613     1.0000 0.78850  0.14720  0.27660  Biso   1.000  C
  C614     1.0000 0.79910  0.17070  0.32580  Biso   1.000  C
  C615     1.0000 0.85190  0.18620  0.35040  Biso   1.000  C
  H423     1.0000 0.88450  0.18160  0.33710  Biso   1.000  H
  C616     1.0000 0.85720  0.20870  0.39440  Biso   1.000  C
  H424     1.0000 0.89280  0.22020  0.41130  Biso   1.000  H
  C617     1.0000 0.81010  0.21380  0.41250  Biso   1.000  C
  H425     1.0000 0.81290  0.22900  0.44300  Biso   1.000  H
  C618     1.0000 0.75760  0.19730  0.38780  Biso   1.000  C
  H426     1.0000 0.72540  0.20140  0.40190  Biso   1.000  H
  C619     1.0000 0.65360  0.18990  0.19340  Biso   1.000  C
  H427     1.0000 0.67810  0.17530  0.18110  Biso   1.000  H
  C620     1.0000 0.62780  0.21520  0.15600  Biso   1.000  C
  H428     1.0000 0.63520  0.21800  0.11950  Biso   1.000  H
  C621     1.0000 0.59360  0.23490  0.17190  Biso   1.000  C
  H429     1.0000 0.57450  0.25140  0.14520  Biso   1.000  H
  C622     1.0000 0.58310  0.23290  0.22870  Biso   1.000  C
  H430     1.0000 0.56050  0.24830  0.24170  Biso   1.000  H
  C623     1.0000 0.61030  0.20560  0.26310  Biso   1.000  C
  C624     1.0000 0.59890  0.19850  0.31860  Biso   1.000  C
  C625     1.0000 0.56560  0.21580  0.34360  Biso   1.000  C
  H431     1.0000 0.54800  0.23520  0.32550  Biso   1.000  H
  C626     1.0000 0.55700  0.20600  0.39330  Biso   1.000  C
  H432     1.0000 0.53470  0.21890  0.41140  Biso   1.000  H
  C627     1.0000 0.58040  0.17700  0.41880  Biso   1.000  C
  H433     1.0000 0.57330  0.16920  0.45340  Biso   1.000  H
  C628     1.0000 0.61390  0.16020  0.39260  Biso   1.000  C
  H434     1.0000 0.63000  0.14020  0.40940  Biso   1.000  H
  C629     1.0000 0.56640  0.12130  0.21690  Biso   1.000  C
  H435     1.0000 0.55750  0.14280  0.20300  Biso   1.000  H
  C630     1.0000 0.53040  0.09580  0.18740  Biso   1.000  C
  H436     1.0000 0.49830  0.10000  0.15270  Biso   1.000  H
  C631     1.0000 0.54150  0.06480  0.20870  Biso   1.000  C
  C632     1.0000 0.58820  0.05990  0.26060  Biso   1.000  C
  H437     1.0000 0.59590  0.03880  0.27690  Biso   1.000  H
  C633     1.0000 0.62260  0.08480  0.28800  Biso   1.000  C
  C634     1.0000 0.67300  0.08190  0.34320  Biso   1.000  C
  C635     1.0000 0.68680  0.05380  0.37530  Biso   1.000  C
  H438     1.0000 0.66300  0.03510  0.36290  Biso   1.000  H
  C636     1.0000 0.73560  0.05260  0.42600  Biso   1.000  C
  C637     1.0000 0.76750  0.08080  0.44290  Biso   1.000  C
  H439     1.0000 0.80070  0.08090  0.47750  Biso   1.000  H
  C638     1.0000 0.75140  0.10900  0.40980  Biso   1.000  C
  H440     1.0000 0.77370  0.12810  0.42240  Biso   1.000  H
  C639     1.0000 0.51020  0.03640  0.17480  Biso   1.000  C
  C640     1.0000 0.75230  0.02120  0.46010  Biso   1.000  C
  C641     1.0000 0.58430  0.79370  0.20820  Biso   1.000  C
  H441     1.0000 0.58580  0.81510  0.19470  Biso   1.000  H
  C642     1.0000 0.53980  0.77400  0.17710  Biso   1.000  C
  H442     1.0000 0.50990  0.78190  0.14350  Biso   1.000  H
  C643     1.0000 0.53860  0.74230  0.19510  Biso   1.000  C
  H443     1.0000 0.50870  0.72790  0.17360  Biso   1.000  H
  C644     1.0000 0.58170  0.73240  0.24490  Biso   1.000  C
  H444     1.0000 0.58140  0.71090  0.25840  Biso   1.000  H
  C645     1.0000 0.62570  0.75330  0.27580  Biso   1.000  C
  C646     1.0000 0.67600  0.74470  0.32750  Biso   1.000  C
  C647     1.0000 0.68010  0.71430  0.35440  Biso   1.000  C
  H445     1.0000 0.65050  0.69850  0.33980  Biso   1.000  H
  C648     1.0000 0.72760  0.70840  0.40160  Biso   1.000  C
  H446     1.0000 0.73220  0.68780  0.41990  Biso   1.000  H
  C649     1.0000 0.77030  0.73240  0.42420  Biso   1.000  C
  H447     1.0000 0.80300  0.72810  0.45830  Biso   1.000  H
  C650     1.0000 0.76470  0.76240  0.39660  Biso   1.000  C
  H448     1.0000 0.79410  0.77840  0.41070  Biso   1.000  H
  C651     1.0000 0.73680  0.78860  0.20730  Biso   1.000  C
  H449     1.0000 0.69730  0.78170  0.18980  Biso   1.000  H
  C652     1.0000 0.77650  0.78230  0.17800  Biso   1.000  C
  H450     1.0000 0.76600  0.77050  0.14200  Biso   1.000  H
  C653     1.0000 0.83220  0.79390  0.20350  Biso   1.000  C
  H451     1.0000 0.86030  0.79120  0.18330  Biso   1.000  H
  C654     1.0000 0.84880  0.80920  0.25610  Biso   1.000  C
  H452     1.0000 0.88810  0.81630  0.27370  Biso   1.000  H
  C655     1.0000 0.80730  0.81410  0.28300  Biso   1.000  C
  C656     1.0000 0.81760  0.83270  0.33830  Biso   1.000  C
  C657     1.0000 0.87210  0.84650  0.36920  Biso   1.000  C
  H453     1.0000 0.90580  0.84350  0.35700  Biso   1.000  H
  C658     1.0000 0.87420  0.86460  0.41790  Biso   1.000  C
  H454     1.0000 0.91030  0.87450  0.43950  Biso   1.000  H
  C659     1.0000 0.82690  0.86880  0.43600  Biso   1.000  C
  H455     1.0000 0.82910  0.88210  0.46910  Biso   1.000  H
  C660     1.0000 0.77470  0.85340  0.40530  Biso   1.000  C
  H456     1.0000 0.74150  0.85540  0.41880  Biso   1.000  H
  C661     1.0000 0.67120  0.86840  0.22250  Biso   1.000  C
  H457     1.0000 0.70180  0.85960  0.20970  Biso   1.000  H
  C662     1.0000 0.64080  0.89550  0.19160  Biso   1.000  C
  H458     1.0000 0.65120  0.90520  0.16020  Biso   1.000  H
  C663     1.0000 0.59500  0.90700  0.20970  Biso   1.000  C
  C664     1.0000 0.58490  0.89370  0.25850  Biso   1.000  C
  H459     1.0000 0.55530  0.90250  0.27260  Biso   1.000  H
  C665     1.0000 0.61790  0.86750  0.28710  Biso   1.000  C
  C666     1.0000 0.60720  0.85200  0.33740  Biso   1.000  C
  C667     1.0000 0.56670  0.86170  0.36330  Biso   1.000  C
  H460     1.0000 0.54380  0.88050  0.34970  Biso   1.000  H
  C668     1.0000 0.55930  0.84370  0.41040  Biso   1.000  C
  C669     1.0000 0.59410  0.81740  0.42960  Biso   1.000  C
  H461     1.0000 0.59040  0.80510  0.46190  Biso   1.000  H
  C670     1.0000 0.63430  0.80860  0.40230  Biso   1.000  C
  H462     1.0000 0.65810  0.79020  0.41650  Biso   1.000  H
  C671     1.0000 0.55420  0.93320  0.17640  Biso   1.000  C
  C672     1.0000 0.51430  0.85360  0.43860  Biso   1.000  C
  N109     1.0000 0.19380  0.92810  0.33530  Biso   1.000  N
  N110     1.0000 0.11380  0.93810  0.23380  Biso   1.000  N
  N111     1.0000 0.11560  0.98780  0.32100  Biso   1.000  N
  N112     1.0000 0.14800  0.00970  0.23410  Biso   1.000  N
  N113     1.0000 0.24270  0.99640  0.33700  Biso   1.000  N
  N114     1.0000 0.24030  0.95930  0.24620  Biso   1.000  N
  N115     1.0000 0.73480  0.13310  0.25970  Biso   1.000  N
  N116     1.0000 0.75170  0.17610  0.34470  Biso   1.000  N
  N117     1.0000 0.64570  0.18510  0.24510  Biso   1.000  N
  N118     1.0000 0.62540  0.17060  0.34400  Biso   1.000  N
  N119     1.0000 0.61380  0.11560  0.26480  Biso   1.000  N
  N120     1.0000 0.70450  0.10940  0.36000  Biso   1.000  N
  N121     1.0000 0.62640  0.78380  0.25740  Biso   1.000  N
  N122     1.0000 0.71590  0.76840  0.34850  Biso   1.000  N
  N123     1.0000 0.75060  0.80390  0.25960  Biso   1.000  N
  N124     1.0000 0.77020  0.83590  0.35740  Biso   1.000  N
  N125     1.0000 0.66040  0.85460  0.26760  Biso   1.000  N
  N126     1.0000 0.64140  0.82480  0.35630  Biso   1.000  N
  O73      1.0000 0.36810  0.08510  0.44730  Biso   1.000  O
  O74      1.0000 0.42920  0.05990  0.41470  Biso   1.000  O
  O75      1.0000 0.40480  0.98888  0.17450  Biso   1.000  O
  O76      1.0000 0.37780  0.94430  0.12310  Biso   1.000  O
  O77      1.0000 0.46300  0.03981  0.13300  Biso   1.000  O
  O78      1.0000 0.53440  0.00894  0.18980  Biso   1.000  O
  O79      1.0000 0.71730  0.99857  0.44830  Biso   1.000  O
  O80      1.0000 0.80180  0.02120  0.49770  Biso   1.000  O
  O81      1.0000 0.56960  0.95074  0.14050  Biso   1.000  O
  O82      1.0000 0.50590  0.93528  0.18410  Biso   1.000  O
  O83      1.0000 0.48240  0.87660  0.41920  Biso   1.000  O
  O84      1.0000 0.51540  0.83730  0.48270  Biso   1.000  O
  Ru22     1.0000 0.67593  0.46880  0.28473  Biso   1.000  Ru
  Ru23     1.0000 0.17876  0.64828  0.30361  Biso   1.000  Ru
  Ru24     1.0000 0.19497  0.31215  0.30773  Biso   1.000  Ru
  Tb8      1.0000 0.96643  0.47791  0.11627  Biso   1.000  Tb
  C673     1.0000 0.73850  0.42360  0.38540  Biso   1.000  C
  H463     1.0000 0.76700  0.44010  0.39880  Biso   1.000  H
  C674     1.0000 0.74410  0.39620  0.41720  Biso   1.000  C
  H464     1.0000 0.77580  0.39360  0.45280  Biso   1.000  H
  C675     1.0000 0.70370  0.37240  0.39760  Biso   1.000  C
  H465     1.0000 0.70760  0.35320  0.42000  Biso   1.000  H
  C676     1.0000 0.65820  0.37530  0.34700  Biso   1.000  C
  H466     1.0000 0.63000  0.35860  0.33350  Biso   1.000  H
  C677     1.0000 0.65480  0.40370  0.31590  Biso   1.000  C
  C678     1.0000 0.60810  0.40950  0.25870  Biso   1.000  C
  C679     1.0000 0.56560  0.38710  0.23310  Biso   1.000  C
  H467     1.0000 0.56170  0.36730  0.25130  Biso   1.000  H
  C680     1.0000 0.52750  0.39670  0.17570  Biso   1.000  C
  H468     1.0000 0.49640  0.38250  0.15600  Biso   1.000  H
  C681     1.0000 0.53270  0.42450  0.14780  Biso   1.000  C
  H469     1.0000 0.50810  0.42940  0.10900  Biso   1.000  H
  C682     1.0000 0.57530  0.44470  0.17920  Biso   1.000  C
  H470     1.0000 0.57880  0.46500  0.16210  Biso   1.000  H
  C683     1.0000 0.60180  0.47430  0.36780  Biso   1.000  C
  H471     1.0000 0.61750  0.45400  0.38310  Biso   1.000  H
  C684     1.0000 0.56460  0.49080  0.39230  Biso   1.000  C
  H472     1.0000 0.55360  0.48090  0.42320  Biso   1.000  H
  C685     1.0000 0.54440  0.51930  0.37420  Biso   1.000  C
  H473     1.0000 0.52110  0.53070  0.39330  Biso   1.000  H
  C686     1.0000 0.55730  0.53260  0.32690  Biso   1.000  C
  H474     1.0000 0.54090  0.55280  0.31130  Biso   1.000  H
  C687     1.0000 0.59330  0.51670  0.30300  Biso   1.000  C
  C688     1.0000 0.61120  0.52870  0.25230  Biso   1.000  C
  C689     1.0000 0.59200  0.55870  0.22140  Biso   1.000  C
  H475     1.0000 0.56640  0.57230  0.23400  Biso   1.000  H
  C690     1.0000 0.60950  0.56780  0.17500  Biso   1.000  C
  H476     1.0000 0.59660  0.58750  0.15470  Biso   1.000  H
  C691     1.0000 0.64620  0.54750  0.15900  Biso   1.000  C
  H477     1.0000 0.65990  0.55320  0.12700  Biso   1.000  H
  C692     1.0000 0.66360  0.51940  0.18780  Biso   1.000  C
  H478     1.0000 0.68840  0.50570  0.17420  Biso   1.000  H
  C693     1.0000 0.74230  0.51390  0.38500  Biso   1.000  C
  H479     1.0000 0.71060  0.51110  0.40040  Biso   1.000  H
  C694     1.0000 0.78580  0.53510  0.41200  Biso   1.000  C
  H480     1.0000 0.78330  0.54740  0.44470  Biso   1.000  H
  C695     1.0000 0.83380  0.53890  0.39180  Biso   1.000  C
  C696     1.0000 0.83730  0.51970  0.34470  Biso   1.000  C
  H481     1.0000 0.87050  0.52080  0.33110  Biso   1.000  H
  C697     1.0000 0.79060  0.49880  0.31830  Biso   1.000  C
  C698     1.0000 0.78870  0.47800  0.26760  Biso   1.000  C
  C699     1.0000 0.83170  0.47910  0.24030  Biso   1.000  C
  H482     1.0000 0.86510  0.49260  0.25550  Biso   1.000  H
  C700     1.0000 0.82630  0.46040  0.19070  Biso   1.000  C
  C701     1.0000 0.77750  0.44040  0.17020  Biso   1.000  C
  H483     1.0000 0.77290  0.42670  0.13720  Biso   1.000  H
  C702     1.0000 0.73620  0.44110  0.19940  Biso   1.000  C
  H484     1.0000 0.70270  0.42760  0.18520  Biso   1.000  H
  C703     1.0000 0.88020  0.56370  0.41860  Biso   1.000  C
  C704     1.0000 0.87190  0.46430  0.16010  Biso   1.000  C
  C705     1.0000 0.22330  0.61210  0.21450  Biso   1.000  C
  H485     1.0000 0.18590  0.60200  0.20280  Biso   1.000  H
  C706     1.0000 0.25980  0.60460  0.18500  Biso   1.000  C
  H486     1.0000 0.24870  0.58970  0.15330  Biso   1.000  H
  C707     1.0000 0.31410  0.61890  0.20170  Biso   1.000  C
  H487     1.0000 0.34150  0.61420  0.18150  Biso   1.000  H
  C708     1.0000 0.32850  0.64040  0.24890  Biso   1.000  C
  H488     1.0000 0.36620  0.65030  0.26150  Biso   1.000  H
  C709     1.0000 0.28850  0.64720  0.27660  Biso   1.000  C
  C710     1.0000 0.29910  0.67070  0.32580  Biso   1.000  C
  C711     1.0000 0.35190  0.68620  0.35040  Biso   1.000  C
  H489     1.0000 0.38450  0.68160  0.33710  Biso   1.000  H
  C712     1.0000 0.35720  0.70870  0.39440  Biso   1.000  C
  H490     1.0000 0.39280  0.72020  0.41130  Biso   1.000  H
  C713     1.0000 0.31010  0.71380  0.41250  Biso   1.000  C
  H491     1.0000 0.31290  0.72900  0.44300  Biso   1.000  H
  C714     1.0000 0.25760  0.69730  0.38780  Biso   1.000  C
  H492     1.0000 0.22540  0.70140  0.40190  Biso   1.000  H
  C715     1.0000 0.15360  0.68990  0.19340  Biso   1.000  C
  H493     1.0000 0.17810  0.67530  0.18110  Biso   1.000  H
  C716     1.0000 0.12780  0.71520  0.15600  Biso   1.000  C
  H494     1.0000 0.13520  0.71800  0.11950  Biso   1.000  H
  C717     1.0000 0.09360  0.73490  0.17190  Biso   1.000  C
  H495     1.0000 0.07450  0.75140  0.14520  Biso   1.000  H
  C718     1.0000 0.08310  0.73290  0.22870  Biso   1.000  C
  H496     1.0000 0.06050  0.74830  0.24170  Biso   1.000  H
  C719     1.0000 0.11030  0.70560  0.26310  Biso   1.000  C
  C720     1.0000 0.09890  0.69850  0.31860  Biso   1.000  C
  C721     1.0000 0.06560  0.71580  0.34360  Biso   1.000  C
  H497     1.0000 0.04800  0.73520  0.32550  Biso   1.000  H
  C722     1.0000 0.05700  0.70600  0.39330  Biso   1.000  C
  H498     1.0000 0.03470  0.71890  0.41140  Biso   1.000  H
  C723     1.0000 0.08040  0.67700  0.41880  Biso   1.000  C
  H499     1.0000 0.07330  0.66920  0.45340  Biso   1.000  H
  C724     1.0000 0.11390  0.66020  0.39260  Biso   1.000  C
  H500     1.0000 0.13000  0.64020  0.40940  Biso   1.000  H
  C725     1.0000 0.06640  0.62130  0.21690  Biso   1.000  C
  H501     1.0000 0.05750  0.64280  0.20300  Biso   1.000  H
  C726     1.0000 0.03040  0.59580  0.18740  Biso   1.000  C
  H502     1.0000 0.99830  0.60000  0.15270  Biso   1.000  H
  C727     1.0000 0.04150  0.56480  0.20870  Biso   1.000  C
  C728     1.0000 0.08820  0.55990  0.26060  Biso   1.000  C
  H503     1.0000 0.09590  0.53880  0.27690  Biso   1.000  H
  C729     1.0000 0.12260  0.58480  0.28800  Biso   1.000  C
  C730     1.0000 0.17300  0.58190  0.34320  Biso   1.000  C
  C731     1.0000 0.18680  0.55380  0.37530  Biso   1.000  C
  H504     1.0000 0.16300  0.53510  0.36290  Biso   1.000  H
  C732     1.0000 0.23560  0.55260  0.42600  Biso   1.000  C
  C733     1.0000 0.26750  0.58080  0.44290  Biso   1.000  C
  H505     1.0000 0.30070  0.58090  0.47750  Biso   1.000  H
  C734     1.0000 0.25140  0.60900  0.40980  Biso   1.000  C
  H506     1.0000 0.27370  0.62810  0.42240  Biso   1.000  H
  C735     1.0000 0.01020  0.53640  0.17480  Biso   1.000  C
  C736     1.0000 0.25230  0.52120  0.46010  Biso   1.000  C
  C737     1.0000 0.08430  0.29370  0.20820  Biso   1.000  C
  H507     1.0000 0.08580  0.31510  0.19470  Biso   1.000  H
  C738     1.0000 0.03980  0.27400  0.17710  Biso   1.000  C
  H508     1.0000 0.00990  0.28190  0.14350  Biso   1.000  H
  C739     1.0000 0.03860  0.24230  0.19510  Biso   1.000  C
  H509     1.0000 0.00870  0.22790  0.17360  Biso   1.000  H
  C740     1.0000 0.08170  0.23240  0.24490  Biso   1.000  C
  H510     1.0000 0.08140  0.21090  0.25840  Biso   1.000  H
  C741     1.0000 0.12570  0.25330  0.27580  Biso   1.000  C
  C742     1.0000 0.17600  0.24470  0.32750  Biso   1.000  C
  C743     1.0000 0.18010  0.21430  0.35440  Biso   1.000  C
  H511     1.0000 0.15050  0.19850  0.33980  Biso   1.000  H
  C744     1.0000 0.22760  0.20840  0.40160  Biso   1.000  C
  H512     1.0000 0.23220  0.18780  0.41990  Biso   1.000  H
  C745     1.0000 0.27030  0.23240  0.42420  Biso   1.000  C
  H513     1.0000 0.30300  0.22810  0.45830  Biso   1.000  H
  C746     1.0000 0.26470  0.26240  0.39660  Biso   1.000  C
  H514     1.0000 0.29410  0.27840  0.41070  Biso   1.000  H
  C747     1.0000 0.23680  0.28860  0.20730  Biso   1.000  C
  H515     1.0000 0.19730  0.28170  0.18980  Biso   1.000  H
  C748     1.0000 0.27650  0.28230  0.17800  Biso   1.000  C
  H516     1.0000 0.26600  0.27050  0.14200  Biso   1.000  H
  C749     1.0000 0.33220  0.29390  0.20350  Biso   1.000  C
  H517     1.0000 0.36030  0.29120  0.18330  Biso   1.000  H
  C750     1.0000 0.34880  0.30920  0.25610  Biso   1.000  C
  H518     1.0000 0.38810  0.31630  0.27370  Biso   1.000  H
  C751     1.0000 0.30730  0.31410  0.28300  Biso   1.000  C
  C752     1.0000 0.31760  0.33270  0.33830  Biso   1.000  C
  C753     1.0000 0.37210  0.34650  0.36920  Biso   1.000  C
  H519     1.0000 0.40580  0.34350  0.35700  Biso   1.000  H
  C754     1.0000 0.37420  0.36460  0.41790  Biso   1.000  C
  H520     1.0000 0.41030  0.37450  0.43950  Biso   1.000  H
  C755     1.0000 0.32690  0.36880  0.43600  Biso   1.000  C
  H521     1.0000 0.32910  0.38210  0.46910  Biso   1.000  H
  C756     1.0000 0.27470  0.35340  0.40530  Biso   1.000  C
  H522     1.0000 0.24150  0.35540  0.41880  Biso   1.000  H
  C757     1.0000 0.17120  0.36840  0.22250  Biso   1.000  C
  H523     1.0000 0.20180  0.35960  0.20970  Biso   1.000  H
  C758     1.0000 0.14080  0.39550  0.19160  Biso   1.000  C
  H524     1.0000 0.15120  0.40520  0.16020  Biso   1.000  H
  C759     1.0000 0.09500  0.40700  0.20970  Biso   1.000  C
  C760     1.0000 0.08490  0.39370  0.25850  Biso   1.000  C
  H525     1.0000 0.05530  0.40250  0.27260  Biso   1.000  H
  C761     1.0000 0.11790  0.36750  0.28710  Biso   1.000  C
  C762     1.0000 0.10720  0.35200  0.33740  Biso   1.000  C
  C763     1.0000 0.06670  0.36170  0.36330  Biso   1.000  C
  H526     1.0000 0.04380  0.38050  0.34970  Biso   1.000  H
  C764     1.0000 0.05930  0.34370  0.41040  Biso   1.000  C
  C765     1.0000 0.09410  0.31740  0.42960  Biso   1.000  C
  H527     1.0000 0.09040  0.30510  0.46190  Biso   1.000  H
  C766     1.0000 0.13430  0.30860  0.40230  Biso   1.000  C
  H528     1.0000 0.15810  0.29020  0.41650  Biso   1.000  H
  C767     1.0000 0.05420  0.43320  0.17640  Biso   1.000  C
  C768     1.0000 0.01430  0.35360  0.43860  Biso   1.000  C
  N127     1.0000 0.69380  0.42810  0.33530  Biso   1.000  N
  N128     1.0000 0.61380  0.43810  0.23380  Biso   1.000  N
  N129     1.0000 0.61560  0.48780  0.32100  Biso   1.000  N
  N130     1.0000 0.64800  0.50970  0.23410  Biso   1.000  N
  N131     1.0000 0.74270  0.49640  0.33700  Biso   1.000  N
  N132     1.0000 0.74030  0.45930  0.24620  Biso   1.000  N
  N133     1.0000 0.23480  0.63310  0.25970  Biso   1.000  N
  N134     1.0000 0.25170  0.67610  0.34470  Biso   1.000  N
  N135     1.0000 0.14570  0.68510  0.24510  Biso   1.000  N
  N136     1.0000 0.12540  0.67060  0.34400  Biso   1.000  N
  N137     1.0000 0.11380  0.61560  0.26480  Biso   1.000  N
  N138     1.0000 0.20450  0.60940  0.36000  Biso   1.000  N
  N139     1.0000 0.12640  0.28380  0.25740  Biso   1.000  N
  N140     1.0000 0.21590  0.26840  0.34850  Biso   1.000  N
  N141     1.0000 0.25060  0.30390  0.25960  Biso   1.000  N
  N142     1.0000 0.27020  0.33590  0.35740  Biso   1.000  N
  N143     1.0000 0.16040  0.35460  0.26760  Biso   1.000  N
  N144     1.0000 0.14140  0.32480  0.35630  Biso   1.000  N
  O85      1.0000 0.86810  0.58510  0.44730  Biso   1.000  O
  O86      1.0000 0.92920  0.55990  0.41470  Biso   1.000  O
  O87      1.0000 0.90480  0.48888  0.17450  Biso   1.000  O
  O88      1.0000 0.87780  0.44430  0.12310  Biso   1.000  O
  O89      1.0000 0.96300  0.53981  0.13300  Biso   1.000  O
  O90      1.0000 0.03440  0.50894  0.18980  Biso   1.000  O
  O91      1.0000 0.21730  0.49857  0.44830  Biso   1.000  O
  O92      1.0000 0.30180  0.52120  0.49770  Biso   1.000  O
  O93      1.0000 0.06960  0.45074  0.14050  Biso   1.000  O
  O94      1.0000 0.00590  0.43528  0.18410  Biso   1.000  O
  O95      1.0000 0.98240  0.37660  0.41920  Biso   1.000  O
  O96      1.0000 0.01540  0.33730  0.48270  Biso   1.000  O
