data_image0
_cell_length_a       38.393
_cell_length_b       14.694
_cell_length_c       18.872
_cell_angle_alpha    90
_cell_angle_beta     95.907
_cell_angle_gamma    90

_symmetry_space_group_name_H-M    "P 1"
_symmetry_int_tables_number       1

loop_
  _symmetry_equiv_pos_as_xyz
  'x, y, z'

loop_
  _atom_site_label
  _atom_site_occupancy
  _atom_site_fract_x
  _atom_site_fract_y
  _atom_site_fract_z
  _atom_site_thermal_displace_type
  _atom_site_B_iso_or_equiv
  _atom_site_type_symbol
  Zn1      1.0000 0.43920  0.38771  0.75048  Biso   1.000  Zn
  Zn2      1.0000 0.42777  0.22488  0.47921  Biso   1.000  Zn
  Zn3      1.0000 0.38597  0.09330  0.23351  Biso   1.000  Zn
  C1       1.0000 0.16000  0.56490  0.39810  Biso   1.000  C
  C2       1.0000 0.14140  0.47300  0.40060  Biso   1.000  C
  H1       1.0000 0.15700  0.42980  0.42640  Biso   1.000  H
  H2       1.0000 0.12100  0.48010  0.42650  Biso   1.000  H
  C3       1.0000 0.07270  0.42700  0.25240  Biso   1.000  C
  C4       1.0000 0.09550  0.39280  0.31730  Biso   1.000  C
  H3       1.0000 0.08320  0.40230  0.35900  Biso   1.000  H
  H4       1.0000 0.09880  0.32770  0.31230  Biso   1.000  H
  C5       1.0000 0.10800  0.18300  0.17870  Biso   1.000  C
  C6       1.0000 0.13130  0.22980  0.13030  Biso   1.000  C
  H5       1.0000 0.13100  0.19440  0.08680  Biso   1.000  H
  H6       1.0000 0.12120  0.28880  0.11740  Biso   1.000  H
  C7       1.0000 0.22190  0.22090  0.09350  Biso   1.000  C
  C8       1.0000 0.19490  0.18200  0.13830  Biso   1.000  C
  H7       1.0000 0.18380  0.13080  0.11270  Biso   1.000  H
  H8       1.0000 0.20730  0.15830  0.18190  Biso   1.000  H
  C9       1.0000 0.15690  0.39680  0.29440  Biso   1.000  C
  C10      1.0000 0.17520  0.30310  0.21340  Biso   1.000  C
  C11      1.0000 0.21500  0.37750  0.28840  Biso   1.000  C
  C12      1.0000 0.25540  0.47370  0.36420  Biso   1.000  C
  H9       1.0000 0.23490  0.48570  0.38890  Biso   1.000  H
  H10      1.0000 0.26030  0.52800  0.33780  Biso   1.000  H
  C13      1.0000 0.27910  0.37400  0.27610  Biso   1.000  C
  H11      1.0000 0.28420  0.42420  0.24550  Biso   1.000  H
  H12      1.0000 0.27400  0.32070  0.24660  Biso   1.000  H
  C14      1.0000 0.28580  0.45280  0.41740  Biso   1.000  C
  H13      1.0000 0.29120  0.50590  0.44710  Biso   1.000  H
  H14      1.0000 0.27960  0.40350  0.44790  Biso   1.000  H
  C15      1.0000 0.31030  0.35570  0.32970  Biso   1.000  C
  H15      1.0000 0.30680  0.29830  0.35340  Biso   1.000  H
  H16      1.0000 0.33100  0.34950  0.30460  Biso   1.000  H
  C16      1.0000 0.34870  0.44070  0.41720  Biso   1.000  C
  C17      1.0000 0.38430  0.50930  0.50610  Biso   1.000  C
  C18      1.0000 0.40740  0.41500  0.43000  Biso   1.000  C
  C19      1.0000 0.41370  0.23840  0.32840  Biso   1.000  C
  C20      1.0000 0.43310  0.32970  0.33760  Biso   1.000  C
  H17      1.0000 0.45650  0.32290  0.32310  Biso   1.000  H
  H18      1.0000 0.42090  0.37490  0.30680  Biso   1.000  H
  C21      1.0000 0.47880  0.35690  0.52270  Biso   1.000  C
  C22      1.0000 0.47070  0.39070  0.44640  Biso   1.000  C
  H19      1.0000 0.47200  0.45660  0.44620  Biso   1.000  H
  H20      1.0000 0.48840  0.36770  0.41790  Biso   1.000  H
  C23      1.0000 0.44120  0.54040  0.65420  Biso   1.000  C
  C24      1.0000 0.42410  0.59760  0.59100  Biso   1.000  C
  H21      1.0000 0.42250  0.66040  0.60630  Biso   1.000  H
  H22      1.0000 0.43910  0.59600  0.55280  Biso   1.000  H
  C25      1.0000 0.33890  0.67460  0.57040  Biso   1.000  C
  C26      1.0000 0.35930  0.59290  0.60160  Biso   1.000  C
  H23      1.0000 0.36770  0.60620  0.65080  Biso   1.000  H
  H24      1.0000 0.34350  0.54140  0.60170  Biso   1.000  H
  C27      1.0000 0.34580  0.02400  0.35350  Biso   1.000  C
  H25      1.0000 0.36730  0.99790  0.36880  Biso   1.000  H
  C28      1.0000 0.31260  0.11760  0.27720  Biso   1.000  C
  H26      1.0000 0.31090  0.15730  0.23870  Biso   1.000  H
  C29      1.0000 0.31720  0.00420  0.39130  Biso   1.000  C
  H27      1.0000 0.31960  0.96490  0.43010  Biso   1.000  H
  C30      1.0000 0.28270  0.10260  0.31110  Biso   1.000  C
  H28      1.0000 0.26160  0.13050  0.29520  Biso   1.000  H
  C31      1.0000 0.28540  0.04390  0.37000  Biso   1.000  C
  C32      1.0000 0.25420  0.02180  0.41040  Biso   1.000  C
  H29      1.0000 0.26110  0.03290  0.46050  Biso   1.000  H
  H30      1.0000 0.24970  0.95700  0.40520  Biso   1.000  H
  C33      1.0000 0.21950  0.07100  0.39090  Biso   1.000  C
  H31      1.0000 0.20170  0.04200  0.41610  Biso   1.000  H
  H32      1.0000 0.21280  0.06270  0.34030  Biso   1.000  H
  C34      1.0000 0.21920  0.17440  0.40730  Biso   1.000  C
  H33      1.0000 0.23750  0.18800  0.44530  Biso   1.000  H
  H34      1.0000 0.22430  0.20800  0.36540  Biso   1.000  H
  C35      1.0000 0.18450  0.20490  0.42940  Biso   1.000  C
  C36      1.0000 0.18210  0.25790  0.49070  Biso   1.000  C
  H35      1.0000 0.20250  0.27900  0.51630  Biso   1.000  H
  C37      1.0000 0.15270  0.17780  0.39250  Biso   1.000  C
  H36      1.0000 0.15250  0.14530  0.35010  Biso   1.000  H
  C38      1.0000 0.15070  0.27890  0.51380  Biso   1.000  C
  H37      1.0000 0.15020  0.31500  0.55420  Biso   1.000  H
  C39      1.0000 0.12150  0.19950  0.41940  Biso   1.000  C
  H38      1.0000 0.10080  0.17910  0.39480  Biso   1.000  H
  O1       1.0000 0.14919  0.62250  0.35160  Biso   1.000  O
  O2       1.0000 0.18489  0.57960  0.44630  Biso   1.000  O
  O3       1.0000 0.04410  0.38320  0.23680  Biso   1.000  O
  O4       1.0000 0.08147  0.49620  0.21840  Biso   1.000  O
  O5       1.0000 0.07430  0.19510  0.16580  Biso   1.000  O
  O6       1.0000 0.12030  0.13280  0.22840  Biso   1.000  O
  O7       1.0000 0.21604  0.29330  0.05950  Biso   1.000  O
  O8       1.0000 0.24830  0.17250  0.09180  Biso   1.000  O
  O9       1.0000 0.50510  0.39130  0.55660  Biso   1.000  O
  O10      1.0000 0.45957  0.29620  0.54750  Biso   1.000  O
  O11      1.0000 0.40400  0.21850  0.26370  Biso   1.000  O
  O12      1.0000 0.40994  0.18750  0.38020  Biso   1.000  O
  O13      1.0000 0.46940  0.57160  0.68450  Biso   1.000  O
  O14      1.0000 0.42540  0.46920  0.66930  Biso   1.000  O
  O15      1.0000 0.30889  0.68610  0.59200  Biso   1.000  O
  O16      1.0000 0.35150  0.72440  0.52680  Biso   1.000  O
  N1       1.0000 0.13020  0.43640  0.32960  Biso   1.000  N
  N2       1.0000 0.16710  0.24330  0.15820  Biso   1.000  N
  N3       1.0000 0.14730  0.34260  0.23970  Biso   1.000  N
  N4       1.0000 0.20900  0.31480  0.23580  Biso   1.000  N
  N5       1.0000 0.18950  0.41890  0.32060  Biso   1.000  N
  N6       1.0000 0.24810  0.39700  0.31450  Biso   1.000  N
  N7       1.0000 0.31660  0.42720  0.38370  Biso   1.000  N
  N8       1.0000 0.37640  0.39800  0.39250  Biso   1.000  N
  N9       1.0000 0.35130  0.49600  0.47630  Biso   1.000  N
  N10      1.0000 0.41374  0.47060  0.48630  Biso   1.000  N
  N11      1.0000 0.38940  0.56680  0.56360  Biso   1.000  N
  N12      1.0000 0.43570  0.36250  0.41310  Biso   1.000  N
  N13      1.0000 0.11960  0.24880  0.47930  Biso   1.000  N
  N14      1.0000 0.34370  0.07900  0.29620  Biso   1.000  N
  Zn4      1.0000 0.20815  0.30125  0.95336  Biso   1.000  Zn
  Zn5      1.0000 0.06080  0.88771  0.74952  Biso   1.000  Zn
  Zn6      1.0000 0.07223  0.72488  0.02079  Biso   1.000  Zn
  Zn7      1.0000 0.11403  0.59330  0.26649  Biso   1.000  Zn
  C40      1.0000 0.34000  0.06490  0.10190  Biso   1.000  C
  C41      1.0000 0.35860  0.97300  0.09940  Biso   1.000  C
  H39      1.0000 0.34300  0.92980  0.07360  Biso   1.000  H
  H40      1.0000 0.37900  0.98010  0.07350  Biso   1.000  H
  C42      1.0000 0.42730  0.92700  0.24760  Biso   1.000  C
  C43      1.0000 0.40450  0.89280  0.18270  Biso   1.000  C
  H41      1.0000 0.41680  0.90230  0.14100  Biso   1.000  H
  H42      1.0000 0.40120  0.82770  0.18770  Biso   1.000  H
  C44      1.0000 0.39200  0.68300  0.32130  Biso   1.000  C
  C45      1.0000 0.36870  0.72980  0.36970  Biso   1.000  C
  H43      1.0000 0.36900  0.69440  0.41320  Biso   1.000  H
  H44      1.0000 0.37880  0.78880  0.38260  Biso   1.000  H
  C46      1.0000 0.27810  0.72090  0.40650  Biso   1.000  C
  C47      1.0000 0.30510  0.68200  0.36170  Biso   1.000  C
  H45      1.0000 0.31620  0.63080  0.38730  Biso   1.000  H
  H46      1.0000 0.29270  0.65830  0.31810  Biso   1.000  H
  C48      1.0000 0.34310  0.89680  0.20560  Biso   1.000  C
  C49      1.0000 0.32480  0.80310  0.28660  Biso   1.000  C
  C50      1.0000 0.28500  0.87750  0.21160  Biso   1.000  C
  C51      1.0000 0.24460  0.97370  0.13580  Biso   1.000  C
  H47      1.0000 0.26510  0.98570  0.11110  Biso   1.000  H
  H48      1.0000 0.23970  0.02800  0.16220  Biso   1.000  H
  C52      1.0000 0.22090  0.87400  0.22390  Biso   1.000  C
  H49      1.0000 0.21580  0.92420  0.25450  Biso   1.000  H
  H50      1.0000 0.22600  0.82070  0.25340  Biso   1.000  H
  C53      1.0000 0.21420  0.95280  0.08260  Biso   1.000  C
  H51      1.0000 0.20880  0.00590  0.05290  Biso   1.000  H
  H52      1.0000 0.22040  0.90350  0.05210  Biso   1.000  H
  C54      1.0000 0.18970  0.85570  0.17030  Biso   1.000  C
  H53      1.0000 0.19320  0.79830  0.14660  Biso   1.000  H
  H54      1.0000 0.16900  0.84950  0.19540  Biso   1.000  H
  C55      1.0000 0.15130  0.94070  0.08280  Biso   1.000  C
  C56      1.0000 0.11570  0.00930  0.99390  Biso   1.000  C
  C57      1.0000 0.09260  0.91500  0.07000  Biso   1.000  C
  C58      1.0000 0.08630  0.73840  0.17160  Biso   1.000  C
  C59      1.0000 0.06690  0.82970  0.16240  Biso   1.000  C
  H55      1.0000 0.04350  0.82290  0.17690  Biso   1.000  H
  H56      1.0000 0.07910  0.87490  0.19320  Biso   1.000  H
  C60      1.0000 0.02120  0.85690  0.97730  Biso   1.000  C
  C61      1.0000 0.02930  0.89070  0.05360  Biso   1.000  C
  H57      1.0000 0.02800  0.95660  0.05380  Biso   1.000  H
  H58      1.0000 0.01160  0.86770  0.08210  Biso   1.000  H
  C62      1.0000 0.05880  0.04040  0.84580  Biso   1.000  C
  C63      1.0000 0.07590  0.09760  0.90900  Biso   1.000  C
  H59      1.0000 0.07750  0.16040  0.89370  Biso   1.000  H
  H60      1.0000 0.06090  0.09600  0.94720  Biso   1.000  H
  C64      1.0000 0.16110  0.17460  0.92960  Biso   1.000  C
  C65      1.0000 0.14070  0.09290  0.89840  Biso   1.000  C
  H61      1.0000 0.13230  0.10620  0.84920  Biso   1.000  H
  H62      1.0000 0.15650  0.04140  0.89830  Biso   1.000  H
  C66      1.0000 0.15420  0.52400  0.14650  Biso   1.000  C
  H63      1.0000 0.13270  0.49790  0.13120  Biso   1.000  H
  C67      1.0000 0.18740  0.61760  0.22280  Biso   1.000  C
  H64      1.0000 0.18910  0.65730  0.26130  Biso   1.000  H
  C68      1.0000 0.18280  0.50420  0.10870  Biso   1.000  C
  H65      1.0000 0.18040  0.46490  0.06990  Biso   1.000  H
  C69      1.0000 0.21730  0.60260  0.18890  Biso   1.000  C
  H66      1.0000 0.23840  0.63050  0.20480  Biso   1.000  H
  C70      1.0000 0.21460  0.54390  0.13000  Biso   1.000  C
  C71      1.0000 0.24580  0.52180  0.08960  Biso   1.000  C
  H67      1.0000 0.23890  0.53290  0.03950  Biso   1.000  H
  H68      1.0000 0.25030  0.45700  0.09480  Biso   1.000  H
  C72      1.0000 0.28050  0.57100  0.10910  Biso   1.000  C
  H69      1.0000 0.29830  0.54200  0.08390  Biso   1.000  H
  H70      1.0000 0.28720  0.56270  0.15970  Biso   1.000  H
  C73      1.0000 0.28080  0.67440  0.09270  Biso   1.000  C
  H71      1.0000 0.26250  0.68800  0.05470  Biso   1.000  H
  H72      1.0000 0.27570  0.70800  0.13460  Biso   1.000  H
  C74      1.0000 0.31550  0.70490  0.07060  Biso   1.000  C
  C75      1.0000 0.31790  0.75790  0.00930  Biso   1.000  C
  H73      1.0000 0.29750  0.77900  0.98370  Biso   1.000  H
  C76      1.0000 0.34730  0.67780  0.10750  Biso   1.000  C
  H74      1.0000 0.34750  0.64530  0.14990  Biso   1.000  H
  C77      1.0000 0.34930  0.77890  0.98620  Biso   1.000  C
  H75      1.0000 0.34980  0.81500  0.94580  Biso   1.000  H
  C78      1.0000 0.37850  0.69950  0.08060  Biso   1.000  C
  H76      1.0000 0.39920  0.67910  0.10520  Biso   1.000  H
  O17      1.0000 0.35081  0.12250  0.14840  Biso   1.000  O
  O18      1.0000 0.31511  0.07960  0.05370  Biso   1.000  O
  O19      1.0000 0.45590  0.88320  0.26320  Biso   1.000  O
  O20      1.0000 0.41853  0.99620  0.28160  Biso   1.000  O
  O21      1.0000 0.42570  0.69510  0.33420  Biso   1.000  O
  O22      1.0000 0.37970  0.63280  0.27160  Biso   1.000  O
  O23      1.0000 0.28396  0.79330  0.44050  Biso   1.000  O
  O24      1.0000 0.25170  0.67250  0.40820  Biso   1.000  O
  O25      1.0000 0.99490  0.89130  0.94340  Biso   1.000  O
  O26      1.0000 0.04043  0.79620  0.95250  Biso   1.000  O
  O27      1.0000 0.09600  0.71850  0.23630  Biso   1.000  O
  O28      1.0000 0.09006  0.68750  0.11980  Biso   1.000  O
  O29      1.0000 0.03060  0.07160  0.81550  Biso   1.000  O
  O30      1.0000 0.07460  0.96920  0.83070  Biso   1.000  O
  O31      1.0000 0.19111  0.18610  0.90800  Biso   1.000  O
  O32      1.0000 0.14850  0.22440  0.97320  Biso   1.000  O
  N15      1.0000 0.36980  0.93640  0.17040  Biso   1.000  N
  N16      1.0000 0.33290  0.74330  0.34180  Biso   1.000  N
  N17      1.0000 0.35270  0.84260  0.26030  Biso   1.000  N
  N18      1.0000 0.29100  0.81480  0.26420  Biso   1.000  N
  N19      1.0000 0.31050  0.91890  0.17940  Biso   1.000  N
  N20      1.0000 0.25190  0.89700  0.18550  Biso   1.000  N
  N21      1.0000 0.18340  0.92720  0.11630  Biso   1.000  N
  N22      1.0000 0.12360  0.89800  0.10750  Biso   1.000  N
  N23      1.0000 0.14870  0.99600  0.02370  Biso   1.000  N
  N24      1.0000 0.08626  0.97060  0.01370  Biso   1.000  N
  N25      1.0000 0.11060  0.06680  0.93640  Biso   1.000  N
  N26      1.0000 0.06430  0.86250  0.08690  Biso   1.000  N
  N27      1.0000 0.38040  0.74880  0.02070  Biso   1.000  N
  N28      1.0000 0.15630  0.57900  0.20380  Biso   1.000  N
  Zn8      1.0000 0.29185  0.80125  0.54664  Biso   1.000  Zn
  Zn9      1.0000 0.06080  0.11229  0.24952  Biso   1.000  Zn
  Zn10     1.0000 0.07223  0.27512  0.52079  Biso   1.000  Zn
  Zn11     1.0000 0.11403  0.40670  0.76649  Biso   1.000  Zn
  C79      1.0000 0.34000  0.93510  0.60190  Biso   1.000  C
  C80      1.0000 0.35860  0.02700  0.59940  Biso   1.000  C
  H77      1.0000 0.34300  0.07020  0.57360  Biso   1.000  H
  H78      1.0000 0.37900  0.01990  0.57350  Biso   1.000  H
  C81      1.0000 0.42730  0.07300  0.74760  Biso   1.000  C
  C82      1.0000 0.40450  0.10720  0.68270  Biso   1.000  C
  H79      1.0000 0.41680  0.09770  0.64100  Biso   1.000  H
  H80      1.0000 0.40120  0.17230  0.68770  Biso   1.000  H
  C83      1.0000 0.39200  0.31700  0.82130  Biso   1.000  C
  C84      1.0000 0.36870  0.27020  0.86970  Biso   1.000  C
  H81      1.0000 0.36900  0.30560  0.91320  Biso   1.000  H
  H82      1.0000 0.37880  0.21120  0.88260  Biso   1.000  H
  C85      1.0000 0.27810  0.27910  0.90650  Biso   1.000  C
  C86      1.0000 0.30510  0.31800  0.86170  Biso   1.000  C
  H83      1.0000 0.31620  0.36920  0.88730  Biso   1.000  H
  H84      1.0000 0.29270  0.34170  0.81810  Biso   1.000  H
  C87      1.0000 0.34310  0.10320  0.70560  Biso   1.000  C
  C88      1.0000 0.32480  0.19690  0.78660  Biso   1.000  C
  C89      1.0000 0.28500  0.12250  0.71160  Biso   1.000  C
  C90      1.0000 0.24460  0.02630  0.63580  Biso   1.000  C
  H85      1.0000 0.26510  0.01430  0.61110  Biso   1.000  H
  H86      1.0000 0.23970  0.97200  0.66220  Biso   1.000  H
  C91      1.0000 0.22090  0.12600  0.72390  Biso   1.000  C
  H87      1.0000 0.21580  0.07580  0.75450  Biso   1.000  H
  H88      1.0000 0.22600  0.17930  0.75340  Biso   1.000  H
  C92      1.0000 0.21420  0.04720  0.58260  Biso   1.000  C
  H89      1.0000 0.20880  0.99410  0.55290  Biso   1.000  H
  H90      1.0000 0.22040  0.09650  0.55210  Biso   1.000  H
  C93      1.0000 0.18970  0.14430  0.67030  Biso   1.000  C
  H91      1.0000 0.19320  0.20170  0.64660  Biso   1.000  H
  H92      1.0000 0.16900  0.15050  0.69540  Biso   1.000  H
  C94      1.0000 0.15130  0.05930  0.58280  Biso   1.000  C
  C95      1.0000 0.11570  0.99070  0.49390  Biso   1.000  C
  C96      1.0000 0.09260  0.08500  0.57000  Biso   1.000  C
  C97      1.0000 0.08630  0.26160  0.67160  Biso   1.000  C
  C98      1.0000 0.06690  0.17030  0.66240  Biso   1.000  C
  H93      1.0000 0.04350  0.17710  0.67690  Biso   1.000  H
  H94      1.0000 0.07910  0.12510  0.69320  Biso   1.000  H
  C99      1.0000 0.02120  0.14310  0.47730  Biso   1.000  C
  C100     1.0000 0.02930  0.10930  0.55360  Biso   1.000  C
  H95      1.0000 0.02800  0.04340  0.55380  Biso   1.000  H
  H96      1.0000 0.01160  0.13230  0.58210  Biso   1.000  H
  C101     1.0000 0.05880  0.95960  0.34580  Biso   1.000  C
  C102     1.0000 0.07590  0.90240  0.40900  Biso   1.000  C
  H97      1.0000 0.07750  0.83960  0.39370  Biso   1.000  H
  H98      1.0000 0.06090  0.90400  0.44720  Biso   1.000  H
  C103     1.0000 0.16110  0.82540  0.42960  Biso   1.000  C
  C104     1.0000 0.14070  0.90710  0.39840  Biso   1.000  C
  H99      1.0000 0.13230  0.89380  0.34920  Biso   1.000  H
  H100     1.0000 0.15650  0.95860  0.39830  Biso   1.000  H
  C105     1.0000 0.15420  0.47600  0.64650  Biso   1.000  C
  H101     1.0000 0.13270  0.50210  0.63120  Biso   1.000  H
  C106     1.0000 0.18740  0.38240  0.72280  Biso   1.000  C
  H102     1.0000 0.18910  0.34270  0.76130  Biso   1.000  H
  C107     1.0000 0.18280  0.49580  0.60870  Biso   1.000  C
  H103     1.0000 0.18040  0.53510  0.56990  Biso   1.000  H
  C108     1.0000 0.21730  0.39740  0.68890  Biso   1.000  C
  H104     1.0000 0.23840  0.36950  0.70480  Biso   1.000  H
  C109     1.0000 0.21460  0.45610  0.63000  Biso   1.000  C
  C110     1.0000 0.24580  0.47820  0.58960  Biso   1.000  C
  H105     1.0000 0.23890  0.46710  0.53950  Biso   1.000  H
  H106     1.0000 0.25030  0.54300  0.59480  Biso   1.000  H
  C111     1.0000 0.28050  0.42900  0.60910  Biso   1.000  C
  H107     1.0000 0.29830  0.45800  0.58390  Biso   1.000  H
  H108     1.0000 0.28720  0.43730  0.65970  Biso   1.000  H
  C112     1.0000 0.28080  0.32560  0.59270  Biso   1.000  C
  H109     1.0000 0.26250  0.31200  0.55470  Biso   1.000  H
  H110     1.0000 0.27570  0.29200  0.63460  Biso   1.000  H
  C113     1.0000 0.31550  0.29510  0.57060  Biso   1.000  C
  C114     1.0000 0.31790  0.24210  0.50930  Biso   1.000  C
  H111     1.0000 0.29750  0.22100  0.48370  Biso   1.000  H
  C115     1.0000 0.34730  0.32220  0.60750  Biso   1.000  C
  H112     1.0000 0.34750  0.35470  0.64990  Biso   1.000  H
  C116     1.0000 0.34930  0.22110  0.48620  Biso   1.000  C
  H113     1.0000 0.34980  0.18500  0.44580  Biso   1.000  H
  C117     1.0000 0.37850  0.30050  0.58060  Biso   1.000  C
  H114     1.0000 0.39920  0.32090  0.60520  Biso   1.000  H
  O33      1.0000 0.35081  0.87750  0.64840  Biso   1.000  O
  O34      1.0000 0.31511  0.92040  0.55370  Biso   1.000  O
  O35      1.0000 0.45590  0.11680  0.76320  Biso   1.000  O
  O36      1.0000 0.41853  0.00380  0.78160  Biso   1.000  O
  O37      1.0000 0.42570  0.30490  0.83420  Biso   1.000  O
  O38      1.0000 0.37970  0.36720  0.77160  Biso   1.000  O
  O39      1.0000 0.28396  0.20670  0.94050  Biso   1.000  O
  O40      1.0000 0.25170  0.32750  0.90820  Biso   1.000  O
  O41      1.0000 0.99490  0.10870  0.44340  Biso   1.000  O
  O42      1.0000 0.04043  0.20380  0.45250  Biso   1.000  O
  O43      1.0000 0.09600  0.28150  0.73630  Biso   1.000  O
  O44      1.0000 0.09006  0.31250  0.61980  Biso   1.000  O
  O45      1.0000 0.03060  0.92840  0.31550  Biso   1.000  O
  O46      1.0000 0.07460  0.03080  0.33070  Biso   1.000  O
  O47      1.0000 0.19111  0.81390  0.40800  Biso   1.000  O
  O48      1.0000 0.14850  0.77560  0.47320  Biso   1.000  O
  N29      1.0000 0.36980  0.06360  0.67040  Biso   1.000  N
  N30      1.0000 0.33290  0.25670  0.84180  Biso   1.000  N
  N31      1.0000 0.35270  0.15740  0.76030  Biso   1.000  N
  N32      1.0000 0.29100  0.18520  0.76420  Biso   1.000  N
  N33      1.0000 0.31050  0.08110  0.67940  Biso   1.000  N
  N34      1.0000 0.25190  0.10300  0.68550  Biso   1.000  N
  N35      1.0000 0.18340  0.07280  0.61630  Biso   1.000  N
  N36      1.0000 0.12360  0.10200  0.60750  Biso   1.000  N
  N37      1.0000 0.14870  0.00400  0.52370  Biso   1.000  N
  N38      1.0000 0.08626  0.02940  0.51370  Biso   1.000  N
  N39      1.0000 0.11060  0.93320  0.43640  Biso   1.000  N
  N40      1.0000 0.06430  0.13750  0.58690  Biso   1.000  N
  N41      1.0000 0.38040  0.25120  0.52070  Biso   1.000  N
  N42      1.0000 0.15630  0.42100  0.70380  Biso   1.000  N
  Zn12     1.0000 0.29185  0.19875  0.04664  Biso   1.000  Zn
  Zn13     1.0000 0.43920  0.61229  0.25048  Biso   1.000  Zn
  Zn14     1.0000 0.42777  0.77512  0.97921  Biso   1.000  Zn
  Zn15     1.0000 0.38597  0.90670  0.73351  Biso   1.000  Zn
  C118     1.0000 0.16000  0.43510  0.89810  Biso   1.000  C
  C119     1.0000 0.14140  0.52700  0.90060  Biso   1.000  C
  H115     1.0000 0.15700  0.57020  0.92640  Biso   1.000  H
  H116     1.0000 0.12100  0.51990  0.92650  Biso   1.000  H
  C120     1.0000 0.07270  0.57300  0.75240  Biso   1.000  C
  C121     1.0000 0.09550  0.60720  0.81730  Biso   1.000  C
  H117     1.0000 0.08320  0.59770  0.85900  Biso   1.000  H
  H118     1.0000 0.09880  0.67230  0.81230  Biso   1.000  H
  C122     1.0000 0.10800  0.81700  0.67870  Biso   1.000  C
  C123     1.0000 0.13130  0.77020  0.63030  Biso   1.000  C
  H119     1.0000 0.13100  0.80560  0.58680  Biso   1.000  H
  H120     1.0000 0.12120  0.71120  0.61740  Biso   1.000  H
  C124     1.0000 0.22190  0.77910  0.59350  Biso   1.000  C
  C125     1.0000 0.19490  0.81800  0.63830  Biso   1.000  C
  H121     1.0000 0.18380  0.86920  0.61270  Biso   1.000  H
  H122     1.0000 0.20730  0.84170  0.68190  Biso   1.000  H
  C126     1.0000 0.15690  0.60320  0.79440  Biso   1.000  C
  C127     1.0000 0.17520  0.69690  0.71340  Biso   1.000  C
  C128     1.0000 0.21500  0.62250  0.78840  Biso   1.000  C
  C129     1.0000 0.25540  0.52630  0.86420  Biso   1.000  C
  H123     1.0000 0.23490  0.51430  0.88890  Biso   1.000  H
  H124     1.0000 0.26030  0.47200  0.83780  Biso   1.000  H
  C130     1.0000 0.27910  0.62600  0.77610  Biso   1.000  C
  H125     1.0000 0.28420  0.57580  0.74550  Biso   1.000  H
  H126     1.0000 0.27400  0.67930  0.74660  Biso   1.000  H
  C131     1.0000 0.28580  0.54720  0.91740  Biso   1.000  C
  H127     1.0000 0.29120  0.49410  0.94710  Biso   1.000  H
  H128     1.0000 0.27960  0.59650  0.94790  Biso   1.000  H
  C132     1.0000 0.31030  0.64430  0.82970  Biso   1.000  C
  H129     1.0000 0.30680  0.70170  0.85340  Biso   1.000  H
  H130     1.0000 0.33100  0.65050  0.80460  Biso   1.000  H
  C133     1.0000 0.34870  0.55930  0.91720  Biso   1.000  C
  C134     1.0000 0.38430  0.49070  0.00610  Biso   1.000  C
  C135     1.0000 0.40740  0.58500  0.93000  Biso   1.000  C
  C136     1.0000 0.41370  0.76160  0.82840  Biso   1.000  C
  C137     1.0000 0.43310  0.67030  0.83760  Biso   1.000  C
  H131     1.0000 0.45650  0.67710  0.82310  Biso   1.000  H
  H132     1.0000 0.42090  0.62510  0.80680  Biso   1.000  H
  C138     1.0000 0.47880  0.64310  0.02270  Biso   1.000  C
  C139     1.0000 0.47070  0.60930  0.94640  Biso   1.000  C
  H133     1.0000 0.47200  0.54340  0.94620  Biso   1.000  H
  H134     1.0000 0.48840  0.63230  0.91790  Biso   1.000  H
  C140     1.0000 0.44120  0.45960  0.15420  Biso   1.000  C
  C141     1.0000 0.42410  0.40240  0.09100  Biso   1.000  C
  H135     1.0000 0.42250  0.33960  0.10630  Biso   1.000  H
  H136     1.0000 0.43910  0.40400  0.05280  Biso   1.000  H
  C142     1.0000 0.33890  0.32540  0.07040  Biso   1.000  C
  C143     1.0000 0.35930  0.40710  0.10160  Biso   1.000  C
  H137     1.0000 0.36770  0.39380  0.15080  Biso   1.000  H
  H138     1.0000 0.34350  0.45860  0.10170  Biso   1.000  H
  C144     1.0000 0.34580  0.97600  0.85350  Biso   1.000  C
  H139     1.0000 0.36730  0.00210  0.86880  Biso   1.000  H
  C145     1.0000 0.31260  0.88240  0.77720  Biso   1.000  C
  H140     1.0000 0.31090  0.84270  0.73870  Biso   1.000  H
  C146     1.0000 0.31720  0.99580  0.89130  Biso   1.000  C
  H141     1.0000 0.31960  0.03510  0.93010  Biso   1.000  H
  C147     1.0000 0.28270  0.89740  0.81110  Biso   1.000  C
  H142     1.0000 0.26160  0.86950  0.79520  Biso   1.000  H
  C148     1.0000 0.28540  0.95610  0.87000  Biso   1.000  C
  C149     1.0000 0.25420  0.97820  0.91040  Biso   1.000  C
  H143     1.0000 0.26110  0.96710  0.96050  Biso   1.000  H
  H144     1.0000 0.24970  0.04300  0.90520  Biso   1.000  H
  C150     1.0000 0.21950  0.92900  0.89090  Biso   1.000  C
  H145     1.0000 0.20170  0.95800  0.91610  Biso   1.000  H
  H146     1.0000 0.21280  0.93730  0.84030  Biso   1.000  H
  C151     1.0000 0.21920  0.82560  0.90730  Biso   1.000  C
  H147     1.0000 0.23750  0.81200  0.94530  Biso   1.000  H
  H148     1.0000 0.22430  0.79200  0.86540  Biso   1.000  H
  C152     1.0000 0.18450  0.79510  0.92940  Biso   1.000  C
  C153     1.0000 0.18210  0.74210  0.99070  Biso   1.000  C
  H149     1.0000 0.20250  0.72100  0.01630  Biso   1.000  H
  C154     1.0000 0.15270  0.82220  0.89250  Biso   1.000  C
  H150     1.0000 0.15250  0.85470  0.85010  Biso   1.000  H
  C155     1.0000 0.15070  0.72110  0.01380  Biso   1.000  C
  H151     1.0000 0.15020  0.68500  0.05420  Biso   1.000  H
  C156     1.0000 0.12150  0.80050  0.91940  Biso   1.000  C
  H152     1.0000 0.10080  0.82090  0.89480  Biso   1.000  H
  O49      1.0000 0.14919  0.37750  0.85160  Biso   1.000  O
  O50      1.0000 0.18489  0.42040  0.94630  Biso   1.000  O
  O51      1.0000 0.04410  0.61680  0.73680  Biso   1.000  O
  O52      1.0000 0.08147  0.50380  0.71840  Biso   1.000  O
  O53      1.0000 0.07430  0.80490  0.66580  Biso   1.000  O
  O54      1.0000 0.12030  0.86720  0.72840  Biso   1.000  O
  O55      1.0000 0.21604  0.70670  0.55950  Biso   1.000  O
  O56      1.0000 0.24830  0.82750  0.59180  Biso   1.000  O
  O57      1.0000 0.50510  0.60870  0.05660  Biso   1.000  O
  O58      1.0000 0.45957  0.70380  0.04750  Biso   1.000  O
  O59      1.0000 0.40400  0.78150  0.76370  Biso   1.000  O
  O60      1.0000 0.40994  0.81250  0.88020  Biso   1.000  O
  O61      1.0000 0.46940  0.42840  0.18450  Biso   1.000  O
  O62      1.0000 0.42540  0.53080  0.16930  Biso   1.000  O
  O63      1.0000 0.30889  0.31390  0.09200  Biso   1.000  O
  O64      1.0000 0.35150  0.27560  0.02680  Biso   1.000  O
  N43      1.0000 0.13020  0.56360  0.82960  Biso   1.000  N
  N44      1.0000 0.16710  0.75670  0.65820  Biso   1.000  N
  N45      1.0000 0.14730  0.65740  0.73970  Biso   1.000  N
  N46      1.0000 0.20900  0.68520  0.73580  Biso   1.000  N
  N47      1.0000 0.18950  0.58110  0.82060  Biso   1.000  N
  N48      1.0000 0.24810  0.60300  0.81450  Biso   1.000  N
  N49      1.0000 0.31660  0.57280  0.88370  Biso   1.000  N
  N50      1.0000 0.37640  0.60200  0.89250  Biso   1.000  N
  N51      1.0000 0.35130  0.50400  0.97630  Biso   1.000  N
  N52      1.0000 0.41374  0.52940  0.98630  Biso   1.000  N
  N53      1.0000 0.38940  0.43320  0.06360  Biso   1.000  N
  N54      1.0000 0.43570  0.63750  0.91310  Biso   1.000  N
  N55      1.0000 0.11960  0.75120  0.97930  Biso   1.000  N
  N56      1.0000 0.34370  0.92100  0.79620  Biso   1.000  N
  Zn16     1.0000 0.20815  0.69875  0.45336  Biso   1.000  Zn
  Zn17     1.0000 0.93920  0.88771  0.75048  Biso   1.000  Zn
  Zn18     1.0000 0.92777  0.72488  0.47921  Biso   1.000  Zn
  Zn19     1.0000 0.88597  0.59330  0.23351  Biso   1.000  Zn
  C157     1.0000 0.66000  0.06490  0.39810  Biso   1.000  C
  C158     1.0000 0.64140  0.97300  0.40060  Biso   1.000  C
  H153     1.0000 0.65700  0.92980  0.42640  Biso   1.000  H
  H154     1.0000 0.62100  0.98010  0.42650  Biso   1.000  H
  C159     1.0000 0.57270  0.92700  0.25240  Biso   1.000  C
  C160     1.0000 0.59550  0.89280  0.31730  Biso   1.000  C
  H155     1.0000 0.58320  0.90230  0.35900  Biso   1.000  H
  H156     1.0000 0.59880  0.82770  0.31230  Biso   1.000  H
  C161     1.0000 0.60800  0.68300  0.17870  Biso   1.000  C
  C162     1.0000 0.63130  0.72980  0.13030  Biso   1.000  C
  H157     1.0000 0.63100  0.69440  0.08680  Biso   1.000  H
  H158     1.0000 0.62120  0.78880  0.11740  Biso   1.000  H
  C163     1.0000 0.72190  0.72090  0.09350  Biso   1.000  C
  C164     1.0000 0.69490  0.68200  0.13830  Biso   1.000  C
  H159     1.0000 0.68380  0.63080  0.11270  Biso   1.000  H
  H160     1.0000 0.70730  0.65830  0.18190  Biso   1.000  H
  C165     1.0000 0.65690  0.89680  0.29440  Biso   1.000  C
  C166     1.0000 0.67520  0.80310  0.21340  Biso   1.000  C
  C167     1.0000 0.71500  0.87750  0.28840  Biso   1.000  C
  C168     1.0000 0.75540  0.97370  0.36420  Biso   1.000  C
  H161     1.0000 0.73490  0.98570  0.38890  Biso   1.000  H
  H162     1.0000 0.76030  0.02800  0.33780  Biso   1.000  H
  C169     1.0000 0.77910  0.87400  0.27610  Biso   1.000  C
  H163     1.0000 0.78420  0.92420  0.24550  Biso   1.000  H
  H164     1.0000 0.77400  0.82070  0.24660  Biso   1.000  H
  C170     1.0000 0.78580  0.95280  0.41740  Biso   1.000  C
  H165     1.0000 0.79120  0.00590  0.44710  Biso   1.000  H
  H166     1.0000 0.77960  0.90350  0.44790  Biso   1.000  H
  C171     1.0000 0.81030  0.85570  0.32970  Biso   1.000  C
  H167     1.0000 0.80680  0.79830  0.35340  Biso   1.000  H
  H168     1.0000 0.83100  0.84950  0.30460  Biso   1.000  H
  C172     1.0000 0.84870  0.94070  0.41720  Biso   1.000  C
  C173     1.0000 0.88430  0.00930  0.50610  Biso   1.000  C
  C174     1.0000 0.90740  0.91500  0.43000  Biso   1.000  C
  C175     1.0000 0.91370  0.73840  0.32840  Biso   1.000  C
  C176     1.0000 0.93310  0.82970  0.33760  Biso   1.000  C
  H169     1.0000 0.95650  0.82290  0.32310  Biso   1.000  H
  H170     1.0000 0.92090  0.87490  0.30680  Biso   1.000  H
  C177     1.0000 0.97880  0.85690  0.52270  Biso   1.000  C
  C178     1.0000 0.97070  0.89070  0.44640  Biso   1.000  C
  H171     1.0000 0.97200  0.95660  0.44620  Biso   1.000  H
  H172     1.0000 0.98840  0.86770  0.41790  Biso   1.000  H
  C179     1.0000 0.94120  0.04040  0.65420  Biso   1.000  C
  C180     1.0000 0.92410  0.09760  0.59100  Biso   1.000  C
  H173     1.0000 0.92250  0.16040  0.60630  Biso   1.000  H
  H174     1.0000 0.93910  0.09600  0.55280  Biso   1.000  H
  C181     1.0000 0.83890  0.17460  0.57040  Biso   1.000  C
  C182     1.0000 0.85930  0.09290  0.60160  Biso   1.000  C
  H175     1.0000 0.86770  0.10620  0.65080  Biso   1.000  H
  H176     1.0000 0.84350  0.04140  0.60170  Biso   1.000  H
  C183     1.0000 0.84580  0.52400  0.35350  Biso   1.000  C
  H177     1.0000 0.86730  0.49790  0.36880  Biso   1.000  H
  C184     1.0000 0.81260  0.61760  0.27720  Biso   1.000  C
  H178     1.0000 0.81090  0.65730  0.23870  Biso   1.000  H
  C185     1.0000 0.81720  0.50420  0.39130  Biso   1.000  C
  H179     1.0000 0.81960  0.46490  0.43010  Biso   1.000  H
  C186     1.0000 0.78270  0.60260  0.31110  Biso   1.000  C
  H180     1.0000 0.76160  0.63050  0.29520  Biso   1.000  H
  C187     1.0000 0.78540  0.54390  0.37000  Biso   1.000  C
  C188     1.0000 0.75420  0.52180  0.41040  Biso   1.000  C
  H181     1.0000 0.76110  0.53290  0.46050  Biso   1.000  H
  H182     1.0000 0.74970  0.45700  0.40520  Biso   1.000  H
  C189     1.0000 0.71950  0.57100  0.39090  Biso   1.000  C
  H183     1.0000 0.70170  0.54200  0.41610  Biso   1.000  H
  H184     1.0000 0.71280  0.56270  0.34030  Biso   1.000  H
  C190     1.0000 0.71920  0.67440  0.40730  Biso   1.000  C
  H185     1.0000 0.73750  0.68800  0.44530  Biso   1.000  H
  H186     1.0000 0.72430  0.70800  0.36540  Biso   1.000  H
  C191     1.0000 0.68450  0.70490  0.42940  Biso   1.000  C
  C192     1.0000 0.68210  0.75790  0.49070  Biso   1.000  C
  H187     1.0000 0.70250  0.77900  0.51630  Biso   1.000  H
  C193     1.0000 0.65270  0.67780  0.39250  Biso   1.000  C
  H188     1.0000 0.65250  0.64530  0.35010  Biso   1.000  H
  C194     1.0000 0.65070  0.77890  0.51380  Biso   1.000  C
  H189     1.0000 0.65020  0.81500  0.55420  Biso   1.000  H
  C195     1.0000 0.62150  0.69950  0.41940  Biso   1.000  C
  H190     1.0000 0.60080  0.67910  0.39480  Biso   1.000  H
  O65      1.0000 0.64919  0.12250  0.35160  Biso   1.000  O
  O66      1.0000 0.68489  0.07960  0.44630  Biso   1.000  O
  O67      1.0000 0.54410  0.88320  0.23680  Biso   1.000  O
  O68      1.0000 0.58147  0.99620  0.21840  Biso   1.000  O
  O69      1.0000 0.57430  0.69510  0.16580  Biso   1.000  O
  O70      1.0000 0.62030  0.63280  0.22840  Biso   1.000  O
  O71      1.0000 0.71604  0.79330  0.05950  Biso   1.000  O
  O72      1.0000 0.74830  0.67250  0.09180  Biso   1.000  O
  O73      1.0000 0.00510  0.89130  0.55660  Biso   1.000  O
  O74      1.0000 0.95957  0.79620  0.54750  Biso   1.000  O
  O75      1.0000 0.90400  0.71850  0.26370  Biso   1.000  O
  O76      1.0000 0.90994  0.68750  0.38020  Biso   1.000  O
  O77      1.0000 0.96940  0.07160  0.68450  Biso   1.000  O
  O78      1.0000 0.92540  0.96920  0.66930  Biso   1.000  O
  O79      1.0000 0.80889  0.18610  0.59200  Biso   1.000  O
  O80      1.0000 0.85150  0.22440  0.52680  Biso   1.000  O
  N57      1.0000 0.63020  0.93640  0.32960  Biso   1.000  N
  N58      1.0000 0.66710  0.74330  0.15820  Biso   1.000  N
  N59      1.0000 0.64730  0.84260  0.23970  Biso   1.000  N
  N60      1.0000 0.70900  0.81480  0.23580  Biso   1.000  N
  N61      1.0000 0.68950  0.91890  0.32060  Biso   1.000  N
  N62      1.0000 0.74810  0.89700  0.31450  Biso   1.000  N
  N63      1.0000 0.81660  0.92720  0.38370  Biso   1.000  N
  N64      1.0000 0.87640  0.89800  0.39250  Biso   1.000  N
  N65      1.0000 0.85130  0.99600  0.47630  Biso   1.000  N
  N66      1.0000 0.91374  0.97060  0.48630  Biso   1.000  N
  N67      1.0000 0.88940  0.06680  0.56360  Biso   1.000  N
  N68      1.0000 0.93570  0.86250  0.41310  Biso   1.000  N
  N69      1.0000 0.61960  0.74880  0.47930  Biso   1.000  N
  N70      1.0000 0.84370  0.57900  0.29620  Biso   1.000  N
  Zn20     1.0000 0.70815  0.80125  0.95336  Biso   1.000  Zn
  Zn21     1.0000 0.56080  0.38771  0.74952  Biso   1.000  Zn
  Zn22     1.0000 0.57223  0.22488  0.02079  Biso   1.000  Zn
  Zn23     1.0000 0.61403  0.09330  0.26649  Biso   1.000  Zn
  C196     1.0000 0.84000  0.56490  0.10190  Biso   1.000  C
  C197     1.0000 0.85860  0.47300  0.09940  Biso   1.000  C
  H191     1.0000 0.84300  0.42980  0.07360  Biso   1.000  H
  H192     1.0000 0.87900  0.48010  0.07350  Biso   1.000  H
  C198     1.0000 0.92730  0.42700  0.24760  Biso   1.000  C
  C199     1.0000 0.90450  0.39280  0.18270  Biso   1.000  C
  H193     1.0000 0.91680  0.40230  0.14100  Biso   1.000  H
  H194     1.0000 0.90120  0.32770  0.18770  Biso   1.000  H
  C200     1.0000 0.89200  0.18300  0.32130  Biso   1.000  C
  C201     1.0000 0.86870  0.22980  0.36970  Biso   1.000  C
  H195     1.0000 0.86900  0.19440  0.41320  Biso   1.000  H
  H196     1.0000 0.87880  0.28880  0.38260  Biso   1.000  H
  C202     1.0000 0.77810  0.22090  0.40650  Biso   1.000  C
  C203     1.0000 0.80510  0.18200  0.36170  Biso   1.000  C
  H197     1.0000 0.81620  0.13080  0.38730  Biso   1.000  H
  H198     1.0000 0.79270  0.15830  0.31810  Biso   1.000  H
  C204     1.0000 0.84310  0.39680  0.20560  Biso   1.000  C
  C205     1.0000 0.82480  0.30310  0.28660  Biso   1.000  C
  C206     1.0000 0.78500  0.37750  0.21160  Biso   1.000  C
  C207     1.0000 0.74460  0.47370  0.13580  Biso   1.000  C
  H199     1.0000 0.76510  0.48570  0.11110  Biso   1.000  H
  H200     1.0000 0.73970  0.52800  0.16220  Biso   1.000  H
  C208     1.0000 0.72090  0.37400  0.22390  Biso   1.000  C
  H201     1.0000 0.71580  0.42420  0.25450  Biso   1.000  H
  H202     1.0000 0.72600  0.32070  0.25340  Biso   1.000  H
  C209     1.0000 0.71420  0.45280  0.08260  Biso   1.000  C
  H203     1.0000 0.70880  0.50590  0.05290  Biso   1.000  H
  H204     1.0000 0.72040  0.40350  0.05210  Biso   1.000  H
  C210     1.0000 0.68970  0.35570  0.17030  Biso   1.000  C
  H205     1.0000 0.69320  0.29830  0.14660  Biso   1.000  H
  H206     1.0000 0.66900  0.34950  0.19540  Biso   1.000  H
  C211     1.0000 0.65130  0.44070  0.08280  Biso   1.000  C
  C212     1.0000 0.61570  0.50930  0.99390  Biso   1.000  C
  C213     1.0000 0.59260  0.41500  0.07000  Biso   1.000  C
  C214     1.0000 0.58630  0.23840  0.17160  Biso   1.000  C
  C215     1.0000 0.56690  0.32970  0.16240  Biso   1.000  C
  H207     1.0000 0.54350  0.32290  0.17690  Biso   1.000  H
  H208     1.0000 0.57910  0.37490  0.19320  Biso   1.000  H
  C216     1.0000 0.52120  0.35690  0.97730  Biso   1.000  C
  C217     1.0000 0.52930  0.39070  0.05360  Biso   1.000  C
  H209     1.0000 0.52800  0.45660  0.05380  Biso   1.000  H
  H210     1.0000 0.51160  0.36770  0.08210  Biso   1.000  H
  C218     1.0000 0.55880  0.54040  0.84580  Biso   1.000  C
  C219     1.0000 0.57590  0.59760  0.90900  Biso   1.000  C
  H211     1.0000 0.57750  0.66040  0.89370  Biso   1.000  H
  H212     1.0000 0.56090  0.59600  0.94720  Biso   1.000  H
  C220     1.0000 0.66110  0.67460  0.92960  Biso   1.000  C
  C221     1.0000 0.64070  0.59290  0.89840  Biso   1.000  C
  H213     1.0000 0.63230  0.60620  0.84920  Biso   1.000  H
  H214     1.0000 0.65650  0.54140  0.89830  Biso   1.000  H
  C222     1.0000 0.65420  0.02400  0.14650  Biso   1.000  C
  H215     1.0000 0.63270  0.99790  0.13120  Biso   1.000  H
  C223     1.0000 0.68740  0.11760  0.22280  Biso   1.000  C
  H216     1.0000 0.68910  0.15730  0.26130  Biso   1.000  H
  C224     1.0000 0.68280  0.00420  0.10870  Biso   1.000  C
  H217     1.0000 0.68040  0.96490  0.06990  Biso   1.000  H
  C225     1.0000 0.71730  0.10260  0.18890  Biso   1.000  C
  H218     1.0000 0.73840  0.13050  0.20480  Biso   1.000  H
  C226     1.0000 0.71460  0.04390  0.13000  Biso   1.000  C
  C227     1.0000 0.74580  0.02180  0.08960  Biso   1.000  C
  H219     1.0000 0.73890  0.03290  0.03950  Biso   1.000  H
  H220     1.0000 0.75030  0.95700  0.09480  Biso   1.000  H
  C228     1.0000 0.78050  0.07100  0.10910  Biso   1.000  C
  H221     1.0000 0.79830  0.04200  0.08390  Biso   1.000  H
  H222     1.0000 0.78720  0.06270  0.15970  Biso   1.000  H
  C229     1.0000 0.78080  0.17440  0.09270  Biso   1.000  C
  H223     1.0000 0.76250  0.18800  0.05470  Biso   1.000  H
  H224     1.0000 0.77570  0.20800  0.13460  Biso   1.000  H
  C230     1.0000 0.81550  0.20490  0.07060  Biso   1.000  C
  C231     1.0000 0.81790  0.25790  0.00930  Biso   1.000  C
  H225     1.0000 0.79750  0.27900  0.98370  Biso   1.000  H
  C232     1.0000 0.84730  0.17780  0.10750  Biso   1.000  C
  H226     1.0000 0.84750  0.14530  0.14990  Biso   1.000  H
  C233     1.0000 0.84930  0.27890  0.98620  Biso   1.000  C
  H227     1.0000 0.84980  0.31500  0.94580  Biso   1.000  H
  C234     1.0000 0.87850  0.19950  0.08060  Biso   1.000  C
  H228     1.0000 0.89920  0.17910  0.10520  Biso   1.000  H
  O81      1.0000 0.85081  0.62250  0.14840  Biso   1.000  O
  O82      1.0000 0.81511  0.57960  0.05370  Biso   1.000  O
  O83      1.0000 0.95590  0.38320  0.26320  Biso   1.000  O
  O84      1.0000 0.91853  0.49620  0.28160  Biso   1.000  O
  O85      1.0000 0.92570  0.19510  0.33420  Biso   1.000  O
  O86      1.0000 0.87970  0.13280  0.27160  Biso   1.000  O
  O87      1.0000 0.78396  0.29330  0.44050  Biso   1.000  O
  O88      1.0000 0.75170  0.17250  0.40820  Biso   1.000  O
  O89      1.0000 0.49490  0.39130  0.94340  Biso   1.000  O
  O90      1.0000 0.54043  0.29620  0.95250  Biso   1.000  O
  O91      1.0000 0.59600  0.21850  0.23630  Biso   1.000  O
  O92      1.0000 0.59006  0.18750  0.11980  Biso   1.000  O
  O93      1.0000 0.53060  0.57160  0.81550  Biso   1.000  O
  O94      1.0000 0.57460  0.46920  0.83070  Biso   1.000  O
  O95      1.0000 0.69111  0.68610  0.90800  Biso   1.000  O
  O96      1.0000 0.64850  0.72440  0.97320  Biso   1.000  O
  N71      1.0000 0.86980  0.43640  0.17040  Biso   1.000  N
  N72      1.0000 0.83290  0.24330  0.34180  Biso   1.000  N
  N73      1.0000 0.85270  0.34260  0.26030  Biso   1.000  N
  N74      1.0000 0.79100  0.31480  0.26420  Biso   1.000  N
  N75      1.0000 0.81050  0.41890  0.17940  Biso   1.000  N
  N76      1.0000 0.75190  0.39700  0.18550  Biso   1.000  N
  N77      1.0000 0.68340  0.42720  0.11630  Biso   1.000  N
  N78      1.0000 0.62360  0.39800  0.10750  Biso   1.000  N
  N79      1.0000 0.64870  0.49600  0.02370  Biso   1.000  N
  N80      1.0000 0.58626  0.47060  0.01370  Biso   1.000  N
  N81      1.0000 0.61060  0.56680  0.93640  Biso   1.000  N
  N82      1.0000 0.56430  0.36250  0.08690  Biso   1.000  N
  N83      1.0000 0.88040  0.24880  0.02070  Biso   1.000  N
  N84      1.0000 0.65630  0.07900  0.20380  Biso   1.000  N
  Zn24     1.0000 0.79185  0.30125  0.54664  Biso   1.000  Zn
  Zn25     1.0000 0.56080  0.61229  0.24952  Biso   1.000  Zn
  Zn26     1.0000 0.57223  0.77512  0.52079  Biso   1.000  Zn
  Zn27     1.0000 0.61403  0.90670  0.76649  Biso   1.000  Zn
  C235     1.0000 0.84000  0.43510  0.60190  Biso   1.000  C
  C236     1.0000 0.85860  0.52700  0.59940  Biso   1.000  C
  H229     1.0000 0.84300  0.57020  0.57360  Biso   1.000  H
  H230     1.0000 0.87900  0.51990  0.57350  Biso   1.000  H
  C237     1.0000 0.92730  0.57300  0.74760  Biso   1.000  C
  C238     1.0000 0.90450  0.60720  0.68270  Biso   1.000  C
  H231     1.0000 0.91680  0.59770  0.64100  Biso   1.000  H
  H232     1.0000 0.90120  0.67230  0.68770  Biso   1.000  H
  C239     1.0000 0.89200  0.81700  0.82130  Biso   1.000  C
  C240     1.0000 0.86870  0.77020  0.86970  Biso   1.000  C
  H233     1.0000 0.86900  0.80560  0.91320  Biso   1.000  H
  H234     1.0000 0.87880  0.71120  0.88260  Biso   1.000  H
  C241     1.0000 0.77810  0.77910  0.90650  Biso   1.000  C
  C242     1.0000 0.80510  0.81800  0.86170  Biso   1.000  C
  H235     1.0000 0.81620  0.86920  0.88730  Biso   1.000  H
  H236     1.0000 0.79270  0.84170  0.81810  Biso   1.000  H
  C243     1.0000 0.84310  0.60320  0.70560  Biso   1.000  C
  C244     1.0000 0.82480  0.69690  0.78660  Biso   1.000  C
  C245     1.0000 0.78500  0.62250  0.71160  Biso   1.000  C
  C246     1.0000 0.74460  0.52630  0.63580  Biso   1.000  C
  H237     1.0000 0.76510  0.51430  0.61110  Biso   1.000  H
  H238     1.0000 0.73970  0.47200  0.66220  Biso   1.000  H
  C247     1.0000 0.72090  0.62600  0.72390  Biso   1.000  C
  H239     1.0000 0.71580  0.57580  0.75450  Biso   1.000  H
  H240     1.0000 0.72600  0.67930  0.75340  Biso   1.000  H
  C248     1.0000 0.71420  0.54720  0.58260  Biso   1.000  C
  H241     1.0000 0.70880  0.49410  0.55290  Biso   1.000  H
  H242     1.0000 0.72040  0.59650  0.55210  Biso   1.000  H
  C249     1.0000 0.68970  0.64430  0.67030  Biso   1.000  C
  H243     1.0000 0.69320  0.70170  0.64660  Biso   1.000  H
  H244     1.0000 0.66900  0.65050  0.69540  Biso   1.000  H
  C250     1.0000 0.65130  0.55930  0.58280  Biso   1.000  C
  C251     1.0000 0.61570  0.49070  0.49390  Biso   1.000  C
  C252     1.0000 0.59260  0.58500  0.57000  Biso   1.000  C
  C253     1.0000 0.58630  0.76160  0.67160  Biso   1.000  C
  C254     1.0000 0.56690  0.67030  0.66240  Biso   1.000  C
  H245     1.0000 0.54350  0.67710  0.67690  Biso   1.000  H
  H246     1.0000 0.57910  0.62510  0.69320  Biso   1.000  H
  C255     1.0000 0.52120  0.64310  0.47730  Biso   1.000  C
  C256     1.0000 0.52930  0.60930  0.55360  Biso   1.000  C
  H247     1.0000 0.52800  0.54340  0.55380  Biso   1.000  H
  H248     1.0000 0.51160  0.63230  0.58210  Biso   1.000  H
  C257     1.0000 0.55880  0.45960  0.34580  Biso   1.000  C
  C258     1.0000 0.57590  0.40240  0.40900  Biso   1.000  C
  H249     1.0000 0.57750  0.33960  0.39370  Biso   1.000  H
  H250     1.0000 0.56090  0.40400  0.44720  Biso   1.000  H
  C259     1.0000 0.66110  0.32540  0.42960  Biso   1.000  C
  C260     1.0000 0.64070  0.40710  0.39840  Biso   1.000  C
  H251     1.0000 0.63230  0.39380  0.34920  Biso   1.000  H
  H252     1.0000 0.65650  0.45860  0.39830  Biso   1.000  H
  C261     1.0000 0.65420  0.97600  0.64650  Biso   1.000  C
  H253     1.0000 0.63270  0.00210  0.63120  Biso   1.000  H
  C262     1.0000 0.68740  0.88240  0.72280  Biso   1.000  C
  H254     1.0000 0.68910  0.84270  0.76130  Biso   1.000  H
  C263     1.0000 0.68280  0.99580  0.60870  Biso   1.000  C
  H255     1.0000 0.68040  0.03510  0.56990  Biso   1.000  H
  C264     1.0000 0.71730  0.89740  0.68890  Biso   1.000  C
  H256     1.0000 0.73840  0.86950  0.70480  Biso   1.000  H
  C265     1.0000 0.71460  0.95610  0.63000  Biso   1.000  C
  C266     1.0000 0.74580  0.97820  0.58960  Biso   1.000  C
  H257     1.0000 0.73890  0.96710  0.53950  Biso   1.000  H
  H258     1.0000 0.75030  0.04300  0.59480  Biso   1.000  H
  C267     1.0000 0.78050  0.92900  0.60910  Biso   1.000  C
  H259     1.0000 0.79830  0.95800  0.58390  Biso   1.000  H
  H260     1.0000 0.78720  0.93730  0.65970  Biso   1.000  H
  C268     1.0000 0.78080  0.82560  0.59270  Biso   1.000  C
  H261     1.0000 0.76250  0.81200  0.55470  Biso   1.000  H
  H262     1.0000 0.77570  0.79200  0.63460  Biso   1.000  H
  C269     1.0000 0.81550  0.79510  0.57060  Biso   1.000  C
  C270     1.0000 0.81790  0.74210  0.50930  Biso   1.000  C
  H263     1.0000 0.79750  0.72100  0.48370  Biso   1.000  H
  C271     1.0000 0.84730  0.82220  0.60750  Biso   1.000  C
  H264     1.0000 0.84750  0.85470  0.64990  Biso   1.000  H
  C272     1.0000 0.84930  0.72110  0.48620  Biso   1.000  C
  H265     1.0000 0.84980  0.68500  0.44580  Biso   1.000  H
  C273     1.0000 0.87850  0.80050  0.58060  Biso   1.000  C
  H266     1.0000 0.89920  0.82090  0.60520  Biso   1.000  H
  O97      1.0000 0.85081  0.37750  0.64840  Biso   1.000  O
  O98      1.0000 0.81511  0.42040  0.55370  Biso   1.000  O
  O99      1.0000 0.95590  0.61680  0.76320  Biso   1.000  O
  O100     1.0000 0.91853  0.50380  0.78160  Biso   1.000  O
  O101     1.0000 0.92570  0.80490  0.83420  Biso   1.000  O
  O102     1.0000 0.87970  0.86720  0.77160  Biso   1.000  O
  O103     1.0000 0.78396  0.70670  0.94050  Biso   1.000  O
  O104     1.0000 0.75170  0.82750  0.90820  Biso   1.000  O
  O105     1.0000 0.49490  0.60870  0.44340  Biso   1.000  O
  O106     1.0000 0.54043  0.70380  0.45250  Biso   1.000  O
  O107     1.0000 0.59600  0.78150  0.73630  Biso   1.000  O
  O108     1.0000 0.59006  0.81250  0.61980  Biso   1.000  O
  O109     1.0000 0.53060  0.42840  0.31550  Biso   1.000  O
  O110     1.0000 0.57460  0.53080  0.33070  Biso   1.000  O
  O111     1.0000 0.69111  0.31390  0.40800  Biso   1.000  O
  O112     1.0000 0.64850  0.27560  0.47320  Biso   1.000  O
  N85      1.0000 0.86980  0.56360  0.67040  Biso   1.000  N
  N86      1.0000 0.83290  0.75670  0.84180  Biso   1.000  N
  N87      1.0000 0.85270  0.65740  0.76030  Biso   1.000  N
  N88      1.0000 0.79100  0.68520  0.76420  Biso   1.000  N
  N89      1.0000 0.81050  0.58110  0.67940  Biso   1.000  N
  N90      1.0000 0.75190  0.60300  0.68550  Biso   1.000  N
  N91      1.0000 0.68340  0.57280  0.61630  Biso   1.000  N
  N92      1.0000 0.62360  0.60200  0.60750  Biso   1.000  N
  N93      1.0000 0.64870  0.50400  0.52370  Biso   1.000  N
  N94      1.0000 0.58626  0.52940  0.51370  Biso   1.000  N
  N95      1.0000 0.61060  0.43320  0.43640  Biso   1.000  N
  N96      1.0000 0.56430  0.63750  0.58690  Biso   1.000  N
  N97      1.0000 0.88040  0.75120  0.52070  Biso   1.000  N
  N98      1.0000 0.65630  0.92100  0.70380  Biso   1.000  N
  Zn28     1.0000 0.79185  0.69875  0.04664  Biso   1.000  Zn
  Zn29     1.0000 0.93920  0.11229  0.25048  Biso   1.000  Zn
  Zn30     1.0000 0.92777  0.27512  0.97921  Biso   1.000  Zn
  Zn31     1.0000 0.88597  0.40670  0.73351  Biso   1.000  Zn
  C274     1.0000 0.66000  0.93510  0.89810  Biso   1.000  C
  C275     1.0000 0.64140  0.02700  0.90060  Biso   1.000  C
  H267     1.0000 0.65700  0.07020  0.92640  Biso   1.000  H
  H268     1.0000 0.62100  0.01990  0.92650  Biso   1.000  H
  C276     1.0000 0.57270  0.07300  0.75240  Biso   1.000  C
  C277     1.0000 0.59550  0.10720  0.81730  Biso   1.000  C
  H269     1.0000 0.58320  0.09770  0.85900  Biso   1.000  H
  H270     1.0000 0.59880  0.17230  0.81230  Biso   1.000  H
  C278     1.0000 0.60800  0.31700  0.67870  Biso   1.000  C
  C279     1.0000 0.63130  0.27020  0.63030  Biso   1.000  C
  H271     1.0000 0.63100  0.30560  0.58680  Biso   1.000  H
  H272     1.0000 0.62120  0.21120  0.61740  Biso   1.000  H
  C280     1.0000 0.72190  0.27910  0.59350  Biso   1.000  C
  C281     1.0000 0.69490  0.31800  0.63830  Biso   1.000  C
  H273     1.0000 0.68380  0.36920  0.61270  Biso   1.000  H
  H274     1.0000 0.70730  0.34170  0.68190  Biso   1.000  H
  C282     1.0000 0.65690  0.10320  0.79440  Biso   1.000  C
  C283     1.0000 0.67520  0.19690  0.71340  Biso   1.000  C
  C284     1.0000 0.71500  0.12250  0.78840  Biso   1.000  C
  C285     1.0000 0.75540  0.02630  0.86420  Biso   1.000  C
  H275     1.0000 0.73490  0.01430  0.88890  Biso   1.000  H
  H276     1.0000 0.76030  0.97200  0.83780  Biso   1.000  H
  C286     1.0000 0.77910  0.12600  0.77610  Biso   1.000  C
  H277     1.0000 0.78420  0.07580  0.74550  Biso   1.000  H
  H278     1.0000 0.77400  0.17930  0.74660  Biso   1.000  H
  C287     1.0000 0.78580  0.04720  0.91740  Biso   1.000  C
  H279     1.0000 0.79120  0.99410  0.94710  Biso   1.000  H
  H280     1.0000 0.77960  0.09650  0.94790  Biso   1.000  H
  C288     1.0000 0.81030  0.14430  0.82970  Biso   1.000  C
  H281     1.0000 0.80680  0.20170  0.85340  Biso   1.000  H
  H282     1.0000 0.83100  0.15050  0.80460  Biso   1.000  H
  C289     1.0000 0.84870  0.05930  0.91720  Biso   1.000  C
  C290     1.0000 0.88430  0.99070  0.00610  Biso   1.000  C
  C291     1.0000 0.90740  0.08500  0.93000  Biso   1.000  C
  C292     1.0000 0.91370  0.26160  0.82840  Biso   1.000  C
  C293     1.0000 0.93310  0.17030  0.83760  Biso   1.000  C
  H283     1.0000 0.95650  0.17710  0.82310  Biso   1.000  H
  H284     1.0000 0.92090  0.12510  0.80680  Biso   1.000  H
  C294     1.0000 0.97880  0.14310  0.02270  Biso   1.000  C
  C295     1.0000 0.97070  0.10930  0.94640  Biso   1.000  C
  H285     1.0000 0.97200  0.04340  0.94620  Biso   1.000  H
  H286     1.0000 0.98840  0.13230  0.91790  Biso   1.000  H
  C296     1.0000 0.94120  0.95960  0.15420  Biso   1.000  C
  C297     1.0000 0.92410  0.90240  0.09100  Biso   1.000  C
  H287     1.0000 0.92250  0.83960  0.10630  Biso   1.000  H
  H288     1.0000 0.93910  0.90400  0.05280  Biso   1.000  H
  C298     1.0000 0.83890  0.82540  0.07040  Biso   1.000  C
  C299     1.0000 0.85930  0.90710  0.10160  Biso   1.000  C
  H289     1.0000 0.86770  0.89380  0.15080  Biso   1.000  H
  H290     1.0000 0.84350  0.95860  0.10170  Biso   1.000  H
  C300     1.0000 0.84580  0.47600  0.85350  Biso   1.000  C
  H291     1.0000 0.86730  0.50210  0.86880  Biso   1.000  H
  C301     1.0000 0.81260  0.38240  0.77720  Biso   1.000  C
  H292     1.0000 0.81090  0.34270  0.73870  Biso   1.000  H
  C302     1.0000 0.81720  0.49580  0.89130  Biso   1.000  C
  H293     1.0000 0.81960  0.53510  0.93010  Biso   1.000  H
  C303     1.0000 0.78270  0.39740  0.81110  Biso   1.000  C
  H294     1.0000 0.76160  0.36950  0.79520  Biso   1.000  H
  C304     1.0000 0.78540  0.45610  0.87000  Biso   1.000  C
  C305     1.0000 0.75420  0.47820  0.91040  Biso   1.000  C
  H295     1.0000 0.76110  0.46710  0.96050  Biso   1.000  H
  H296     1.0000 0.74970  0.54300  0.90520  Biso   1.000  H
  C306     1.0000 0.71950  0.42900  0.89090  Biso   1.000  C
  H297     1.0000 0.70170  0.45800  0.91610  Biso   1.000  H
  H298     1.0000 0.71280  0.43730  0.84030  Biso   1.000  H
  C307     1.0000 0.71920  0.32560  0.90730  Biso   1.000  C
  H299     1.0000 0.73750  0.31200  0.94530  Biso   1.000  H
  H300     1.0000 0.72430  0.29200  0.86540  Biso   1.000  H
  C308     1.0000 0.68450  0.29510  0.92940  Biso   1.000  C
  C309     1.0000 0.68210  0.24210  0.99070  Biso   1.000  C
  H301     1.0000 0.70250  0.22100  0.01630  Biso   1.000  H
  C310     1.0000 0.65270  0.32220  0.89250  Biso   1.000  C
  H302     1.0000 0.65250  0.35470  0.85010  Biso   1.000  H
  C311     1.0000 0.65070  0.22110  0.01380  Biso   1.000  C
  H303     1.0000 0.65020  0.18500  0.05420  Biso   1.000  H
  C312     1.0000 0.62150  0.30050  0.91940  Biso   1.000  C
  H304     1.0000 0.60080  0.32090  0.89480  Biso   1.000  H
  O113     1.0000 0.64919  0.87750  0.85160  Biso   1.000  O
  O114     1.0000 0.68489  0.92040  0.94630  Biso   1.000  O
  O115     1.0000 0.54410  0.11680  0.73680  Biso   1.000  O
  O116     1.0000 0.58147  0.00380  0.71840  Biso   1.000  O
  O117     1.0000 0.57430  0.30490  0.66580  Biso   1.000  O
  O118     1.0000 0.62030  0.36720  0.72840  Biso   1.000  O
  O119     1.0000 0.71604  0.20670  0.55950  Biso   1.000  O
  O120     1.0000 0.74830  0.32750  0.59180  Biso   1.000  O
  O121     1.0000 0.00510  0.10870  0.05660  Biso   1.000  O
  O122     1.0000 0.95957  0.20380  0.04750  Biso   1.000  O
  O123     1.0000 0.90400  0.28150  0.76370  Biso   1.000  O
  O124     1.0000 0.90994  0.31250  0.88020  Biso   1.000  O
  O125     1.0000 0.96940  0.92840  0.18450  Biso   1.000  O
  O126     1.0000 0.92540  0.03080  0.16930  Biso   1.000  O
  O127     1.0000 0.80889  0.81390  0.09200  Biso   1.000  O
  O128     1.0000 0.85150  0.77560  0.02680  Biso   1.000  O
  N99      1.0000 0.63020  0.06360  0.82960  Biso   1.000  N
  N100     1.0000 0.66710  0.25670  0.65820  Biso   1.000  N
  N101     1.0000 0.64730  0.15740  0.73970  Biso   1.000  N
  N102     1.0000 0.70900  0.18520  0.73580  Biso   1.000  N
  N103     1.0000 0.68950  0.08110  0.82060  Biso   1.000  N
  N104     1.0000 0.74810  0.10300  0.81450  Biso   1.000  N
  N105     1.0000 0.81660  0.07280  0.88370  Biso   1.000  N
  N106     1.0000 0.87640  0.10200  0.89250  Biso   1.000  N
  N107     1.0000 0.85130  0.00400  0.97630  Biso   1.000  N
  N108     1.0000 0.91374  0.02940  0.98630  Biso   1.000  N
  N109     1.0000 0.88940  0.93320  0.06360  Biso   1.000  N
  N110     1.0000 0.93570  0.13750  0.91310  Biso   1.000  N
  N111     1.0000 0.61960  0.25120  0.97930  Biso   1.000  N
  N112     1.0000 0.84370  0.42100  0.79620  Biso   1.000  N
  Zn32     1.0000 0.70815  0.19875  0.45336  Biso   1.000  Zn
