data_image0
_cell_length_a       34.4789
_cell_length_b       29.8973
_cell_length_c       16.2075
_cell_angle_alpha    90
_cell_angle_beta     109.005
_cell_angle_gamma    90

_symmetry_space_group_name_H-M    "P 1"
_symmetry_int_tables_number       1

loop_
  _symmetry_equiv_pos_as_xyz
  'x, y, z'

loop_
  _atom_site_label
  _atom_site_occupancy
  _atom_site_fract_x
  _atom_site_fract_y
  _atom_site_fract_z
  _atom_site_thermal_displace_type
  _atom_site_B_iso_or_equiv
  _atom_site_type_symbol
  Zn1      1.0000 0.11971  0.29034  0.01162  Biso   1.000  Zn
  Zn2      1.0000 0.12226  0.28978  0.22844  Biso   1.000  Zn
  N1       1.0000 0.99732  0.29237  0.13579  Biso   1.000  N
  N2       1.0000 0.34954  0.10793  0.19741  Biso   1.000  N
  N3       1.0000 0.35196  0.84943  0.23974  Biso   1.000  N
  N4       1.0000 0.85608  0.64878  0.96665  Biso   1.000  N
  N5       1.0000 0.85397  0.38885  0.96314  Biso   1.000  N
  N6       1.0000 0.56020  0.21332  0.44883  Biso   1.000  N
  N7       1.0000 0.15563  0.24821  0.97005  Biso   1.000  N
  N8       1.0000 0.33676  0.92038  0.21147  Biso   1.000  N
  N9       1.0000 0.84272  0.57686  0.94841  Biso   1.000  N
  N10      1.0000 0.49582  0.19930  0.37558  Biso   1.000  N
  O1       1.0000 0.13397  0.26585  0.12834  Biso   1.000  O
  H1       1.0000 0.14840  0.23900  0.13740  Biso   1.000  H
  N11      1.0000 0.65329  0.25226  0.82224  Biso   1.000  N
  C1       1.0000 0.38666  0.13009  0.24046  Biso   1.000  C
  C2       1.0000 0.41512  0.11177  0.31476  Biso   1.000  C
  H2       1.0000 0.40980  0.08410  0.33500  Biso   1.000  H
  C3       1.0000 0.30949  0.99481  0.21845  Biso   1.000  C
  H3       1.0000 0.28660  0.98190  0.22710  Biso   1.000  H
  C4       1.0000 0.34691  0.06053  0.20205  Biso   1.000  C
  N12      1.0000 0.20854  0.20280  0.99846  Biso   1.000  N
  C5       1.0000 0.88295  0.50854  0.95926  Biso   1.000  C
  H4       1.0000 0.90540  0.52560  0.95840  Biso   1.000  H
  C6       1.0000 0.81602  0.45787  0.96281  Biso   1.000  C
  H5       1.0000 0.79370  0.44110  0.96530  Biso   1.000  H
  C7       1.0000 0.37507  0.98690  0.19596  Biso   1.000  C
  H6       1.0000 0.39590  0.96880  0.18960  Biso   1.000  H
  C8       1.0000 0.53351  0.18191  0.41050  Biso   1.000  C
  H7       1.0000 0.54000  0.15180  0.40800  Biso   1.000  H
  C9       1.0000 0.31277  0.04073  0.21509  Biso   1.000  C
  H8       1.0000 0.29190  0.05870  0.22160  Biso   1.000  H
  C10      1.0000 0.31383  0.13203  0.14815  Biso   1.000  C
  C11      1.0000 0.80950  0.59901  0.89274  Biso   1.000  C
  H9       1.0000 0.78590  0.58610  0.85450  Biso   1.000  H
  C12      1.0000 0.89020  0.36514  0.00782  Biso   1.000  C
  C13      1.0000 0.45119  0.13401  0.35911  Biso   1.000  C
  H10      1.0000 0.46990  0.12140  0.40870  Biso   1.000  H
  C14      1.0000 0.39596  0.17170  0.21035  Biso   1.000  C
  H11      1.0000 0.37770  0.18430  0.16020  Biso   1.000  H
  C15      1.0000 0.30995  0.85339  0.20057  Biso   1.000  C
  H12      1.0000 0.29130  0.82980  0.18870  Biso   1.000  H
  C16      1.0000 0.30020  0.89690  0.18226  Biso   1.000  C
  H13      1.0000 0.27420  0.90870  0.15540  Biso   1.000  H
  C17      1.0000 0.84697  0.52934  0.95663  Biso   1.000  C
  C18      1.0000 0.85220  0.43594  0.96370  Biso   1.000  C
  C19      1.0000 0.30521  0.17441  0.17413  Biso   1.000  C
  H14      1.0000 0.32250  0.18690  0.22550  Biso   1.000  H
  C20      1.0000 0.68756  0.27054  0.81836  Biso   1.000  C
  H15      1.0000 0.69810  0.26650  0.77290  Biso   1.000  H
  C21      1.0000 0.81773  0.64304  0.90431  Biso   1.000  C
  H16      1.0000 0.80050  0.66600  0.87520  Biso   1.000  H
  C22      1.0000 0.36695  0.89063  0.24508  Biso   1.000  C
  H17      1.0000 0.39460  0.89790  0.26880  Biso   1.000  H
  N13      1.0000 0.06265  0.28127  0.20259  Biso   1.000  N
  C23      1.0000 0.25193  0.13612  0.02347  Biso   1.000  C
  H18      1.0000 0.23370  0.12300  0.97390  Biso   1.000  H
  C24      1.0000 0.87023  0.60801  0.99205  Biso   1.000  C
  H19      1.0000 0.89540  0.60180  0.03380  Biso   1.000  H
  C25      1.0000 0.89573  0.32231  0.97945  Biso   1.000  C
  H20      1.0000 0.87580  0.31000  0.93150  Biso   1.000  H
  C26      1.0000 0.81312  0.50395  0.95826  Biso   1.000  C
  H21      1.0000 0.78880  0.51800  0.95630  Biso   1.000  H
  C27      1.0000 0.27088  0.19805  0.12364  Biso   1.000  C
  H22      1.0000 0.26570  0.22660  0.14010  Biso   1.000  H
  C28      1.0000 0.34078  0.96796  0.20870  Biso   1.000  C
  C29      1.0000 0.96024  0.31619  0.09305  Biso   1.000  C
  C30      1.0000 0.37815  0.03329  0.19274  Biso   1.000  C
  H23      1.0000 0.40110  0.04620  0.18440  Biso   1.000  H
  C31      1.0000 0.18922  0.23370  0.03104  Biso   1.000  C
  H24      1.0000 0.19820  0.24360  0.08860  Biso   1.000  H
  C32      1.0000 0.24448  0.17868  0.04865  Biso   1.000  C
  N14      1.0000 0.70507  0.29585  0.88931  Biso   1.000  N
  C33      1.0000 0.74316  0.31908  0.90704  Biso   1.000  C
  C34      1.0000 0.91992  0.38277  0.08085  Biso   1.000  C
  H25      1.0000 0.91620  0.41090  0.10140  Biso   1.000  H
  C35      1.0000 0.88588  0.46244  0.96309  Biso   1.000  C
  H26      1.0000 0.91040  0.44870  0.96530  Biso   1.000  H
  C36      1.0000 0.03417  0.31157  0.16973  Biso   1.000  C
  H27      1.0000 0.03900  0.34220  0.17000  Biso   1.000  H
  C37      1.0000 0.45912  0.17519  0.32889  Biso   1.000  C
  C38      1.0000 0.95477  0.35868  0.12276  Biso   1.000  C
  H28      1.0000 0.97470  0.37080  0.17100  Biso   1.000  H
  C39      1.0000 0.28675  0.11323  0.07263  Biso   1.000  C
  H29      1.0000 0.29210  0.08500  0.05500  Biso   1.000  H
  C40      1.0000 0.81654  0.36413  0.94252  Biso   1.000  C
  C41      1.0000 0.18602  0.19696  0.91118  Biso   1.000  C
  H30      1.0000 0.19180  0.17770  0.87180  Biso   1.000  H
  C42      1.0000 0.43194  0.19396  0.25464  Biso   1.000  C
  H31      1.0000 0.43780  0.22140  0.23450  Biso   1.000  H
  C43      1.0000 0.93065  0.29785  0.02200  Biso   1.000  C
  H32      1.0000 0.93410  0.26930  0.00280  Biso   1.000  H
  C44      1.0000 0.80925  0.33776  0.00530  Biso   1.000  C
  H33      1.0000 0.82920  0.33520  0.05990  Biso   1.000  H
  C45      1.0000 0.15346  0.22547  0.89521  Biso   1.000  C
  H34      1.0000 0.13290  0.22890  0.84170  Biso   1.000  H
  C46      1.0000 0.78727  0.36704  0.86045  Biso   1.000  C
  H35      1.0000 0.79260  0.38400  0.81720  Biso   1.000  H
  C47      1.0000 0.04318  0.24069  0.18920  Biso   1.000  C
  H36      1.0000 0.05570  0.21310  0.20620  Biso   1.000  H
  C48      1.0000 0.75023  0.34495  0.84251  Biso   1.000  C
  H37      1.0000 0.73030  0.34740  0.78790  Biso   1.000  H
  C49      1.0000 0.64895  0.26640  0.89970  Biso   1.000  C
  H38      1.0000 0.62750  0.25870  0.91980  Biso   1.000  H
  C50      1.0000 0.68073  0.29316  0.94174  Biso   1.000  C
  H39      1.0000 0.68530  0.30700  0.99540  Biso   1.000  H
  C51      1.0000 0.77233  0.31477  0.98799  Biso   1.000  C
  H40      1.0000 0.76750  0.29680  0.03050  Biso   1.000  H
  C52      1.0000 0.53869  0.25255  0.43790  Biso   1.000  C
  H41      1.0000 0.54960  0.28030  0.45900  Biso   1.000  H
  C53      1.0000 0.00267  0.24719  0.14700  Biso   1.000  C
  H42      1.0000 0.98250  0.22530  0.12930  Biso   1.000  H
  C54      1.0000 0.49902  0.24433  0.39150  Biso   1.000  C
  H43      1.0000 0.47800  0.26520  0.37380  Biso   1.000  H
  Zn3      1.0000 0.38029  0.79034  0.48838  Biso   1.000  Zn
  Zn4      1.0000 0.37774  0.78978  0.27156  Biso   1.000  Zn
  N15      1.0000 0.50268  0.79237  0.36421  Biso   1.000  N
  N16      1.0000 0.15046  0.60793  0.30259  Biso   1.000  N
  N17      1.0000 0.14804  0.34943  0.26026  Biso   1.000  N
  N18      1.0000 0.64392  0.14878  0.53335  Biso   1.000  N
  N19      1.0000 0.64603  0.88885  0.53686  Biso   1.000  N
  N20      1.0000 0.93980  0.71332  0.05117  Biso   1.000  N
  N21      1.0000 0.34437  0.74821  0.52995  Biso   1.000  N
  N22      1.0000 0.16324  0.42038  0.28853  Biso   1.000  N
  N23      1.0000 0.65728  0.07686  0.55159  Biso   1.000  N
  N24      1.0000 0.00418  0.69930  0.12442  Biso   1.000  N
  O2       1.0000 0.36603  0.76585  0.37166  Biso   1.000  O
  H44      1.0000 0.35160  0.73900  0.36260  Biso   1.000  H
  N25      1.0000 0.84671  0.75226  0.67776  Biso   1.000  N
  C55      1.0000 0.11334  0.63009  0.25954  Biso   1.000  C
  C56      1.0000 0.08488  0.61177  0.18524  Biso   1.000  C
  H45      1.0000 0.09020  0.58410  0.16500  Biso   1.000  H
  C57      1.0000 0.19051  0.49481  0.28155  Biso   1.000  C
  H46      1.0000 0.21340  0.48190  0.27290  Biso   1.000  H
  C58      1.0000 0.15309  0.56053  0.29795  Biso   1.000  C
  N26      1.0000 0.29146  0.70280  0.50154  Biso   1.000  N
  C59      1.0000 0.61705  0.00854  0.54074  Biso   1.000  C
  H47      1.0000 0.59460  0.02560  0.54160  Biso   1.000  H
  C60      1.0000 0.68398  0.95787  0.53719  Biso   1.000  C
  H48      1.0000 0.70630  0.94110  0.53470  Biso   1.000  H
  C61      1.0000 0.12493  0.48690  0.30404  Biso   1.000  C
  H49      1.0000 0.10410  0.46880  0.31040  Biso   1.000  H
  C62      1.0000 0.96649  0.68191  0.08950  Biso   1.000  C
  H50      1.0000 0.96000  0.65180  0.09200  Biso   1.000  H
  C63      1.0000 0.18723  0.54073  0.28491  Biso   1.000  C
  H51      1.0000 0.20810  0.55870  0.27840  Biso   1.000  H
  C64      1.0000 0.18617  0.63203  0.35185  Biso   1.000  C
  C65      1.0000 0.69050  0.09901  0.60726  Biso   1.000  C
  H52      1.0000 0.71410  0.08610  0.64550  Biso   1.000  H
  C66      1.0000 0.60980  0.86514  0.49218  Biso   1.000  C
  C67      1.0000 0.04881  0.63401  0.14089  Biso   1.000  C
  H53      1.0000 0.03010  0.62140  0.09130  Biso   1.000  H
  C68      1.0000 0.10404  0.67170  0.28965  Biso   1.000  C
  H54      1.0000 0.12230  0.68430  0.33980  Biso   1.000  H
  C69      1.0000 0.19005  0.35339  0.29943  Biso   1.000  C
  H55      1.0000 0.20870  0.32980  0.31130  Biso   1.000  H
  C70      1.0000 0.19980  0.39690  0.31774  Biso   1.000  C
  H56      1.0000 0.22580  0.40870  0.34460  Biso   1.000  H
  C71      1.0000 0.65303  0.02934  0.54337  Biso   1.000  C
  C72      1.0000 0.64780  0.93594  0.53630  Biso   1.000  C
  C73      1.0000 0.19479  0.67441  0.32587  Biso   1.000  C
  H57      1.0000 0.17750  0.68690  0.27450  Biso   1.000  H
  C74      1.0000 0.81244  0.77054  0.68164  Biso   1.000  C
  H58      1.0000 0.80190  0.76650  0.72710  Biso   1.000  H
  C75      1.0000 0.68227  0.14304  0.59569  Biso   1.000  C
  H59      1.0000 0.69950  0.16600  0.62480  Biso   1.000  H
  C76      1.0000 0.13305  0.39063  0.25492  Biso   1.000  C
  H60      1.0000 0.10540  0.39790  0.23120  Biso   1.000  H
  N27      1.0000 0.43735  0.78127  0.29741  Biso   1.000  N
  C77      1.0000 0.24807  0.63612  0.47653  Biso   1.000  C
  H61      1.0000 0.26630  0.62300  0.52610  Biso   1.000  H
  C78      1.0000 0.62977  0.10801  0.50795  Biso   1.000  C
  H62      1.0000 0.60460  0.10180  0.46620  Biso   1.000  H
  C79      1.0000 0.60427  0.82231  0.52055  Biso   1.000  C
  H63      1.0000 0.62420  0.81000  0.56850  Biso   1.000  H
  C80      1.0000 0.68688  0.00395  0.54174  Biso   1.000  C
  H64      1.0000 0.71120  0.01800  0.54370  Biso   1.000  H
  C81      1.0000 0.22912  0.69805  0.37636  Biso   1.000  C
  H65      1.0000 0.23430  0.72660  0.35990  Biso   1.000  H
  C82      1.0000 0.15922  0.46796  0.29130  Biso   1.000  C
  C83      1.0000 0.53976  0.81619  0.40695  Biso   1.000  C
  C84      1.0000 0.12185  0.53329  0.30726  Biso   1.000  C
  H66      1.0000 0.09890  0.54620  0.31560  Biso   1.000  H
  C85      1.0000 0.31078  0.73370  0.46896  Biso   1.000  C
  H67      1.0000 0.30180  0.74360  0.41140  Biso   1.000  H
  C86      1.0000 0.25552  0.67868  0.45135  Biso   1.000  C
  N28      1.0000 0.79493  0.79585  0.61069  Biso   1.000  N
  C87      1.0000 0.75684  0.81908  0.59296  Biso   1.000  C
  C88      1.0000 0.58008  0.88277  0.41915  Biso   1.000  C
  H68      1.0000 0.58380  0.91090  0.39860  Biso   1.000  H
  C89      1.0000 0.61412  0.96244  0.53691  Biso   1.000  C
  H69      1.0000 0.58960  0.94870  0.53470  Biso   1.000  H
  C90      1.0000 0.46583  0.81157  0.33027  Biso   1.000  C
  H70      1.0000 0.46100  0.84220  0.33000  Biso   1.000  H
  C91      1.0000 0.04088  0.67519  0.17111  Biso   1.000  C
  C92      1.0000 0.54523  0.85868  0.37724  Biso   1.000  C
  H71      1.0000 0.52530  0.87080  0.32900  Biso   1.000  H
  C93      1.0000 0.21325  0.61323  0.42737  Biso   1.000  C
  H72      1.0000 0.20790  0.58500  0.44500  Biso   1.000  H
  C94      1.0000 0.68346  0.86413  0.55748  Biso   1.000  C
  C95      1.0000 0.31398  0.69696  0.58882  Biso   1.000  C
  H73      1.0000 0.30820  0.67770  0.62820  Biso   1.000  H
  C96      1.0000 0.06806  0.69396  0.24536  Biso   1.000  C
  H74      1.0000 0.06220  0.72140  0.26550  Biso   1.000  H
  C97      1.0000 0.56935  0.79785  0.47800  Biso   1.000  C
  H75      1.0000 0.56590  0.76930  0.49720  Biso   1.000  H
  C98      1.0000 0.69075  0.83776  0.49470  Biso   1.000  C
  H76      1.0000 0.67080  0.83520  0.44010  Biso   1.000  H
  C99      1.0000 0.34654  0.72547  0.60479  Biso   1.000  C
  H77      1.0000 0.36710  0.72890  0.65830  Biso   1.000  H
  C100     1.0000 0.71273  0.86704  0.63955  Biso   1.000  C
  H78      1.0000 0.70740  0.88400  0.68280  Biso   1.000  H
  C101     1.0000 0.45682  0.74069  0.31080  Biso   1.000  C
  H79      1.0000 0.44430  0.71310  0.29380  Biso   1.000  H
  C102     1.0000 0.74977  0.84495  0.65749  Biso   1.000  C
  H80      1.0000 0.76970  0.84740  0.71210  Biso   1.000  H
  C103     1.0000 0.85105  0.76640  0.60030  Biso   1.000  C
  H81      1.0000 0.87250  0.75870  0.58020  Biso   1.000  H
  C104     1.0000 0.81927  0.79316  0.55826  Biso   1.000  C
  H82      1.0000 0.81470  0.80700  0.50460  Biso   1.000  H
  C105     1.0000 0.72767  0.81477  0.51201  Biso   1.000  C
  H83      1.0000 0.73250  0.79680  0.46950  Biso   1.000  H
  C106     1.0000 0.96131  0.75255  0.06210  Biso   1.000  C
  H84      1.0000 0.95040  0.78030  0.04100  Biso   1.000  H
  C107     1.0000 0.49733  0.74719  0.35300  Biso   1.000  C
  H85      1.0000 0.51750  0.72530  0.37070  Biso   1.000  H
  C108     1.0000 0.00098  0.74433  0.10850  Biso   1.000  C
  H86      1.0000 0.02200  0.76520  0.12620  Biso   1.000  H
  Zn5      1.0000 0.88029  0.70966  0.98838  Biso   1.000  Zn
  Zn6      1.0000 0.87774  0.71022  0.77156  Biso   1.000  Zn
  N29      1.0000 0.00268  0.70763  0.86421  Biso   1.000  N
  N30      1.0000 0.65046  0.89207  0.80259  Biso   1.000  N
  N31      1.0000 0.64804  0.15057  0.76026  Biso   1.000  N
  N32      1.0000 0.14392  0.35122  0.03335  Biso   1.000  N
  N33      1.0000 0.14603  0.61115  0.03686  Biso   1.000  N
  N34      1.0000 0.43980  0.78668  0.55117  Biso   1.000  N
  N35      1.0000 0.84437  0.75179  0.02995  Biso   1.000  N
  N36      1.0000 0.66324  0.07962  0.78853  Biso   1.000  N
  N37      1.0000 0.15728  0.42314  0.05159  Biso   1.000  N
  N38      1.0000 0.50418  0.80070  0.62442  Biso   1.000  N
  O3       1.0000 0.86603  0.73415  0.87166  Biso   1.000  O
  H87      1.0000 0.85160  0.76100  0.86260  Biso   1.000  H
  N39      1.0000 0.34671  0.74774  0.17776  Biso   1.000  N
  C109     1.0000 0.61334  0.86991  0.75954  Biso   1.000  C
  C110     1.0000 0.58488  0.88823  0.68524  Biso   1.000  C
  H88      1.0000 0.59020  0.91590  0.66500  Biso   1.000  H
  C111     1.0000 0.69051  0.00519  0.78155  Biso   1.000  C
  H89      1.0000 0.71340  0.01810  0.77290  Biso   1.000  H
  C112     1.0000 0.65309  0.93947  0.79795  Biso   1.000  C
  N40      1.0000 0.79146  0.79720  0.00154  Biso   1.000  N
  C113     1.0000 0.11705  0.49146  0.04074  Biso   1.000  C
  H90      1.0000 0.09460  0.47440  0.04160  Biso   1.000  H
  C114     1.0000 0.18398  0.54213  0.03719  Biso   1.000  C
  H91      1.0000 0.20630  0.55890  0.03470  Biso   1.000  H
  C115     1.0000 0.62493  0.01310  0.80404  Biso   1.000  C
  H92      1.0000 0.60410  0.03120  0.81040  Biso   1.000  H
  C116     1.0000 0.46649  0.81809  0.58950  Biso   1.000  C
  H93      1.0000 0.46000  0.84820  0.59200  Biso   1.000  H
  C117     1.0000 0.68723  0.95927  0.78491  Biso   1.000  C
  H94      1.0000 0.70810  0.94130  0.77840  Biso   1.000  H
  C118     1.0000 0.68617  0.86797  0.85185  Biso   1.000  C
  C119     1.0000 0.19050  0.40099  0.10726  Biso   1.000  C
  H95      1.0000 0.21410  0.41390  0.14550  Biso   1.000  H
  C120     1.0000 0.10980  0.63486  0.99218  Biso   1.000  C
  C121     1.0000 0.54881  0.86599  0.64089  Biso   1.000  C
  H96      1.0000 0.53010  0.87860  0.59130  Biso   1.000  H
  C122     1.0000 0.60404  0.82830  0.78965  Biso   1.000  C
  H97      1.0000 0.62230  0.81570  0.83980  Biso   1.000  H
  C123     1.0000 0.69005  0.14661  0.79943  Biso   1.000  C
  H98      1.0000 0.70870  0.17020  0.81130  Biso   1.000  H
  C124     1.0000 0.69980  0.10310  0.81774  Biso   1.000  C
  H99      1.0000 0.72580  0.09130  0.84460  Biso   1.000  H
  C125     1.0000 0.15303  0.47066  0.04337  Biso   1.000  C
  C126     1.0000 0.14780  0.56406  0.03630  Biso   1.000  C
  C127     1.0000 0.69479  0.82559  0.82587  Biso   1.000  C
  H100     1.0000 0.67750  0.81310  0.77450  Biso   1.000  H
  C128     1.0000 0.31244  0.72946  0.18164  Biso   1.000  C
  H101     1.0000 0.30190  0.73350  0.22710  Biso   1.000  H
  C129     1.0000 0.18227  0.35696  0.09569  Biso   1.000  C
  H102     1.0000 0.19950  0.33400  0.12480  Biso   1.000  H
  C130     1.0000 0.63305  0.10937  0.75492  Biso   1.000  C
  H103     1.0000 0.60540  0.10210  0.73120  Biso   1.000  H
  N41      1.0000 0.93735  0.71873  0.79741  Biso   1.000  N
  C131     1.0000 0.74807  0.86388  0.97653  Biso   1.000  C
  H104     1.0000 0.76630  0.87700  0.02610  Biso   1.000  H
  C132     1.0000 0.12977  0.39199  0.00795  Biso   1.000  C
  H105     1.0000 0.10460  0.39820  0.96620  Biso   1.000  H
  C133     1.0000 0.10427  0.67769  0.02055  Biso   1.000  C
  H106     1.0000 0.12420  0.69000  0.06850  Biso   1.000  H
  C134     1.0000 0.18688  0.49605  0.04174  Biso   1.000  C
  H107     1.0000 0.21120  0.48200  0.04370  Biso   1.000  H
  C135     1.0000 0.72912  0.80195  0.87636  Biso   1.000  C
  H108     1.0000 0.73430  0.77340  0.85990  Biso   1.000  H
  C136     1.0000 0.65922  0.03204  0.79130  Biso   1.000  C
  C137     1.0000 0.03976  0.68381  0.90695  Biso   1.000  C
  C138     1.0000 0.62185  0.96671  0.80726  Biso   1.000  C
  H109     1.0000 0.59890  0.95380  0.81560  Biso   1.000  H
  C139     1.0000 0.81078  0.76630  0.96896  Biso   1.000  C
  H110     1.0000 0.80180  0.75640  0.91140  Biso   1.000  H
  C140     1.0000 0.75552  0.82132  0.95135  Biso   1.000  C
  N42      1.0000 0.29493  0.70415  0.11069  Biso   1.000  N
  C141     1.0000 0.25684  0.68092  0.09296  Biso   1.000  C
  C142     1.0000 0.08008  0.61723  0.91915  Biso   1.000  C
  H111     1.0000 0.08380  0.58910  0.89860  Biso   1.000  H
  C143     1.0000 0.11412  0.53756  0.03691  Biso   1.000  C
  H112     1.0000 0.08960  0.55130  0.03470  Biso   1.000  H
  C144     1.0000 0.96583  0.68843  0.83027  Biso   1.000  C
  H113     1.0000 0.96100  0.65780  0.83000  Biso   1.000  H
  C145     1.0000 0.54088  0.82481  0.67111  Biso   1.000  C
  C146     1.0000 0.04523  0.64132  0.87724  Biso   1.000  C
  H114     1.0000 0.02530  0.62920  0.82900  Biso   1.000  H
  C147     1.0000 0.71325  0.88677  0.92737  Biso   1.000  C
  H115     1.0000 0.70790  0.91500  0.94500  Biso   1.000  H
  C148     1.0000 0.18346  0.63587  0.05748  Biso   1.000  C
  C149     1.0000 0.81398  0.80304  0.08882  Biso   1.000  C
  H116     1.0000 0.80820  0.82230  0.12820  Biso   1.000  H
  C150     1.0000 0.56806  0.80604  0.74536  Biso   1.000  C
  H117     1.0000 0.56220  0.77860  0.76550  Biso   1.000  H
  C151     1.0000 0.06935  0.70215  0.97800  Biso   1.000  C
  H118     1.0000 0.06590  0.73070  0.99720  Biso   1.000  H
  C152     1.0000 0.19075  0.66224  0.99470  Biso   1.000  C
  H119     1.0000 0.17080  0.66480  0.94010  Biso   1.000  H
  C153     1.0000 0.84654  0.77453  0.10479  Biso   1.000  C
  H120     1.0000 0.86710  0.77110  0.15830  Biso   1.000  H
  C154     1.0000 0.21273  0.63296  0.13955  Biso   1.000  C
  H121     1.0000 0.20740  0.61600  0.18280  Biso   1.000  H
  C155     1.0000 0.95682  0.75931  0.81080  Biso   1.000  C
  H122     1.0000 0.94430  0.78690  0.79380  Biso   1.000  H
  C156     1.0000 0.24977  0.65505  0.15749  Biso   1.000  C
  H123     1.0000 0.26970  0.65260  0.21210  Biso   1.000  H
  C157     1.0000 0.35105  0.73360  0.10030  Biso   1.000  C
  H124     1.0000 0.37250  0.74130  0.08020  Biso   1.000  H
  C158     1.0000 0.31927  0.70684  0.05826  Biso   1.000  C
  H125     1.0000 0.31470  0.69300  0.00460  Biso   1.000  H
  C159     1.0000 0.22767  0.68523  0.01201  Biso   1.000  C
  H126     1.0000 0.23250  0.70320  0.96950  Biso   1.000  H
  C160     1.0000 0.46131  0.74745  0.56210  Biso   1.000  C
  H127     1.0000 0.45040  0.71970  0.54100  Biso   1.000  H
  C161     1.0000 0.99733  0.75281  0.85300  Biso   1.000  C
  H128     1.0000 0.01750  0.77470  0.87070  Biso   1.000  H
  C162     1.0000 0.50098  0.75567  0.60850  Biso   1.000  C
  H129     1.0000 0.52200  0.73480  0.62620  Biso   1.000  H
  Zn7      1.0000 0.61971  0.20966  0.51162  Biso   1.000  Zn
  Zn8      1.0000 0.62226  0.21022  0.72844  Biso   1.000  Zn
  N43      1.0000 0.49732  0.20763  0.63579  Biso   1.000  N
  N44      1.0000 0.84954  0.39207  0.69741  Biso   1.000  N
  N45      1.0000 0.85196  0.65057  0.73974  Biso   1.000  N
  N46      1.0000 0.35608  0.85122  0.46665  Biso   1.000  N
  N47      1.0000 0.35397  0.11115  0.46314  Biso   1.000  N
  N48      1.0000 0.06020  0.28668  0.94883  Biso   1.000  N
  N49      1.0000 0.65563  0.25179  0.47005  Biso   1.000  N
  N50      1.0000 0.83676  0.57962  0.71147  Biso   1.000  N
  N51      1.0000 0.34272  0.92314  0.44841  Biso   1.000  N
  N52      1.0000 0.99582  0.30070  0.87558  Biso   1.000  N
  O4       1.0000 0.63397  0.23415  0.62834  Biso   1.000  O
  H130     1.0000 0.64840  0.26100  0.63740  Biso   1.000  H
  N53      1.0000 0.15329  0.24774  0.32224  Biso   1.000  N
  C163     1.0000 0.88666  0.36991  0.74046  Biso   1.000  C
  C164     1.0000 0.91512  0.38823  0.81476  Biso   1.000  C
  H131     1.0000 0.90980  0.41590  0.83500  Biso   1.000  H
  C165     1.0000 0.80949  0.50519  0.71845  Biso   1.000  C
  H132     1.0000 0.78660  0.51810  0.72710  Biso   1.000  H
  C166     1.0000 0.84691  0.43947  0.70205  Biso   1.000  C
  N54      1.0000 0.70854  0.29720  0.49846  Biso   1.000  N
  C167     1.0000 0.38295  0.99146  0.45926  Biso   1.000  C
  H133     1.0000 0.40540  0.97440  0.45840  Biso   1.000  H
  C168     1.0000 0.31602  0.04213  0.46281  Biso   1.000  C
  H134     1.0000 0.29370  0.05890  0.46530  Biso   1.000  H
  C169     1.0000 0.87507  0.51310  0.69596  Biso   1.000  C
  H135     1.0000 0.89590  0.53120  0.68960  Biso   1.000  H
  C170     1.0000 0.03351  0.31809  0.91050  Biso   1.000  C
  H136     1.0000 0.04000  0.34820  0.90800  Biso   1.000  H
  C171     1.0000 0.81277  0.45927  0.71509  Biso   1.000  C
  H137     1.0000 0.79190  0.44130  0.72160  Biso   1.000  H
  C172     1.0000 0.81383  0.36797  0.64815  Biso   1.000  C
  C173     1.0000 0.30950  0.90099  0.39274  Biso   1.000  C
  H138     1.0000 0.28590  0.91390  0.35450  Biso   1.000  H
  C174     1.0000 0.39020  0.13486  0.50782  Biso   1.000  C
  C175     1.0000 0.95119  0.36599  0.85911  Biso   1.000  C
  H139     1.0000 0.96990  0.37860  0.90870  Biso   1.000  H
  C176     1.0000 0.89596  0.32830  0.71035  Biso   1.000  C
  H140     1.0000 0.87770  0.31570  0.66020  Biso   1.000  H
  C177     1.0000 0.80995  0.64661  0.70057  Biso   1.000  C
  H141     1.0000 0.79130  0.67020  0.68870  Biso   1.000  H
  C178     1.0000 0.80020  0.60310  0.68226  Biso   1.000  C
  H142     1.0000 0.77420  0.59130  0.65540  Biso   1.000  H
  C179     1.0000 0.34697  0.97066  0.45663  Biso   1.000  C
  C180     1.0000 0.35220  0.06406  0.46370  Biso   1.000  C
  C181     1.0000 0.80521  0.32559  0.67413  Biso   1.000  C
  H143     1.0000 0.82250  0.31310  0.72550  Biso   1.000  H
  C182     1.0000 0.18756  0.22946  0.31836  Biso   1.000  C
  H144     1.0000 0.19810  0.23350  0.27290  Biso   1.000  H
  C183     1.0000 0.31773  0.85696  0.40431  Biso   1.000  C
  H145     1.0000 0.30050  0.83400  0.37520  Biso   1.000  H
  C184     1.0000 0.86695  0.60937  0.74508  Biso   1.000  C
  H146     1.0000 0.89460  0.60210  0.76880  Biso   1.000  H
  N55      1.0000 0.56265  0.21873  0.70259  Biso   1.000  N
  C185     1.0000 0.75193  0.36388  0.52347  Biso   1.000  C
  H147     1.0000 0.73370  0.37700  0.47390  Biso   1.000  H
  C186     1.0000 0.37023  0.89199  0.49205  Biso   1.000  C
  H148     1.0000 0.39540  0.89820  0.53380  Biso   1.000  H
  C187     1.0000 0.39573  0.17769  0.47945  Biso   1.000  C
  H149     1.0000 0.37580  0.19000  0.43150  Biso   1.000  H
  C188     1.0000 0.31312  0.99605  0.45826  Biso   1.000  C
  H150     1.0000 0.28880  0.98200  0.45630  Biso   1.000  H
  C189     1.0000 0.77088  0.30195  0.62364  Biso   1.000  C
  H151     1.0000 0.76570  0.27340  0.64010  Biso   1.000  H
  C190     1.0000 0.84078  0.53204  0.70870  Biso   1.000  C
  C191     1.0000 0.46024  0.18381  0.59305  Biso   1.000  C
  C192     1.0000 0.87815  0.46671  0.69274  Biso   1.000  C
  H152     1.0000 0.90110  0.45380  0.68440  Biso   1.000  H
  C193     1.0000 0.68922  0.26630  0.53104  Biso   1.000  C
  H153     1.0000 0.69820  0.25640  0.58860  Biso   1.000  H
  C194     1.0000 0.74448  0.32132  0.54865  Biso   1.000  C
  N56      1.0000 0.20507  0.20415  0.38931  Biso   1.000  N
  C195     1.0000 0.24316  0.18092  0.40704  Biso   1.000  C
  C196     1.0000 0.41992  0.11723  0.58085  Biso   1.000  C
  H154     1.0000 0.41620  0.08910  0.60140  Biso   1.000  H
  C197     1.0000 0.38588  0.03756  0.46309  Biso   1.000  C
  H155     1.0000 0.41040  0.05130  0.46530  Biso   1.000  H
  C198     1.0000 0.53417  0.18843  0.66973  Biso   1.000  C
  H156     1.0000 0.53900  0.15780  0.67000  Biso   1.000  H
  C199     1.0000 0.95912  0.32481  0.82889  Biso   1.000  C
  C200     1.0000 0.45477  0.14132  0.62276  Biso   1.000  C
  H157     1.0000 0.47470  0.12920  0.67100  Biso   1.000  H
  C201     1.0000 0.78675  0.38677  0.57263  Biso   1.000  C
  H158     1.0000 0.79210  0.41500  0.55500  Biso   1.000  H
  C202     1.0000 0.31654  0.13587  0.44252  Biso   1.000  C
  C203     1.0000 0.68602  0.30304  0.41118  Biso   1.000  C
  H159     1.0000 0.69180  0.32230  0.37180  Biso   1.000  H
  C204     1.0000 0.93194  0.30604  0.75464  Biso   1.000  C
  H160     1.0000 0.93780  0.27860  0.73450  Biso   1.000  H
  C205     1.0000 0.43065  0.20215  0.52200  Biso   1.000  C
  H161     1.0000 0.43410  0.23070  0.50280  Biso   1.000  H
  C206     1.0000 0.30925  0.16224  0.50530  Biso   1.000  C
  H162     1.0000 0.32920  0.16480  0.55990  Biso   1.000  H
  C207     1.0000 0.65346  0.27453  0.39521  Biso   1.000  C
  H163     1.0000 0.63290  0.27110  0.34170  Biso   1.000  H
  C208     1.0000 0.28727  0.13296  0.36045  Biso   1.000  C
  H164     1.0000 0.29260  0.11600  0.31720  Biso   1.000  H
  C209     1.0000 0.54318  0.25931  0.68920  Biso   1.000  C
  H165     1.0000 0.55570  0.28690  0.70620  Biso   1.000  H
  C210     1.0000 0.25023  0.15505  0.34251  Biso   1.000  C
  H166     1.0000 0.23030  0.15260  0.28790  Biso   1.000  H
  C211     1.0000 0.14895  0.23360  0.39970  Biso   1.000  C
  H167     1.0000 0.12750  0.24130  0.41980  Biso   1.000  H
  C212     1.0000 0.18073  0.20684  0.44174  Biso   1.000  C
  H168     1.0000 0.18530  0.19300  0.49540  Biso   1.000  H
  C213     1.0000 0.27233  0.18523  0.48799  Biso   1.000  C
  H169     1.0000 0.26750  0.20320  0.53050  Biso   1.000  H
  C214     1.0000 0.03869  0.24745  0.93790  Biso   1.000  C
  H170     1.0000 0.04960  0.21970  0.95900  Biso   1.000  H
  C215     1.0000 0.50267  0.25281  0.64700  Biso   1.000  C
  H171     1.0000 0.48250  0.27470  0.62930  Biso   1.000  H
  C216     1.0000 0.99902  0.25567  0.89150  Biso   1.000  C
  H172     1.0000 0.97800  0.23480  0.87380  Biso   1.000  H
  Zn9      1.0000 0.61971  0.79034  0.01162  Biso   1.000  Zn
  Zn10     1.0000 0.62226  0.78978  0.22844  Biso   1.000  Zn
  N57      1.0000 0.49732  0.79237  0.13579  Biso   1.000  N
  N58      1.0000 0.84954  0.60793  0.19741  Biso   1.000  N
  N59      1.0000 0.85196  0.34943  0.23974  Biso   1.000  N
  N60      1.0000 0.35608  0.14878  0.96665  Biso   1.000  N
  N61      1.0000 0.35397  0.88885  0.96314  Biso   1.000  N
  N62      1.0000 0.06020  0.71332  0.44883  Biso   1.000  N
  N63      1.0000 0.65563  0.74821  0.97005  Biso   1.000  N
  N64      1.0000 0.83676  0.42038  0.21147  Biso   1.000  N
  N65      1.0000 0.34272  0.07686  0.94841  Biso   1.000  N
  N66      1.0000 0.99582  0.69930  0.37558  Biso   1.000  N
  O5       1.0000 0.63397  0.76585  0.12834  Biso   1.000  O
  H173     1.0000 0.64840  0.73900  0.13740  Biso   1.000  H
  N67      1.0000 0.15329  0.75226  0.82224  Biso   1.000  N
  C217     1.0000 0.88666  0.63009  0.24046  Biso   1.000  C
  C218     1.0000 0.91512  0.61177  0.31476  Biso   1.000  C
  H174     1.0000 0.90980  0.58410  0.33500  Biso   1.000  H
  C219     1.0000 0.80949  0.49481  0.21845  Biso   1.000  C
  H175     1.0000 0.78660  0.48190  0.22710  Biso   1.000  H
  C220     1.0000 0.84691  0.56053  0.20205  Biso   1.000  C
  N68      1.0000 0.70854  0.70280  0.99846  Biso   1.000  N
  C221     1.0000 0.38295  0.00854  0.95926  Biso   1.000  C
  H176     1.0000 0.40540  0.02560  0.95840  Biso   1.000  H
  C222     1.0000 0.31602  0.95787  0.96281  Biso   1.000  C
  H177     1.0000 0.29370  0.94110  0.96530  Biso   1.000  H
  C223     1.0000 0.87507  0.48690  0.19596  Biso   1.000  C
  H178     1.0000 0.89590  0.46880  0.18960  Biso   1.000  H
  C224     1.0000 0.03351  0.68191  0.41050  Biso   1.000  C
  H179     1.0000 0.04000  0.65180  0.40800  Biso   1.000  H
  C225     1.0000 0.81277  0.54073  0.21509  Biso   1.000  C
  H180     1.0000 0.79190  0.55870  0.22160  Biso   1.000  H
  C226     1.0000 0.81383  0.63203  0.14815  Biso   1.000  C
  C227     1.0000 0.30950  0.09901  0.89274  Biso   1.000  C
  H181     1.0000 0.28590  0.08610  0.85450  Biso   1.000  H
  C228     1.0000 0.39020  0.86514  0.00782  Biso   1.000  C
  C229     1.0000 0.95119  0.63401  0.35911  Biso   1.000  C
  H182     1.0000 0.96990  0.62140  0.40870  Biso   1.000  H
  C230     1.0000 0.89596  0.67170  0.21035  Biso   1.000  C
  H183     1.0000 0.87770  0.68430  0.16020  Biso   1.000  H
  C231     1.0000 0.80995  0.35339  0.20057  Biso   1.000  C
  H184     1.0000 0.79130  0.32980  0.18870  Biso   1.000  H
  C232     1.0000 0.80020  0.39690  0.18226  Biso   1.000  C
  H185     1.0000 0.77420  0.40870  0.15540  Biso   1.000  H
  C233     1.0000 0.34697  0.02934  0.95663  Biso   1.000  C
  C234     1.0000 0.35220  0.93594  0.96370  Biso   1.000  C
  C235     1.0000 0.80521  0.67441  0.17413  Biso   1.000  C
  H186     1.0000 0.82250  0.68690  0.22550  Biso   1.000  H
  C236     1.0000 0.18756  0.77054  0.81836  Biso   1.000  C
  H187     1.0000 0.19810  0.76650  0.77290  Biso   1.000  H
  C237     1.0000 0.31773  0.14304  0.90431  Biso   1.000  C
  H188     1.0000 0.30050  0.16600  0.87520  Biso   1.000  H
  C238     1.0000 0.86695  0.39063  0.24508  Biso   1.000  C
  H189     1.0000 0.89460  0.39790  0.26880  Biso   1.000  H
  N69      1.0000 0.56265  0.78127  0.20259  Biso   1.000  N
  C239     1.0000 0.75193  0.63612  0.02347  Biso   1.000  C
  H190     1.0000 0.73370  0.62300  0.97390  Biso   1.000  H
  C240     1.0000 0.37023  0.10801  0.99205  Biso   1.000  C
  H191     1.0000 0.39540  0.10180  0.03380  Biso   1.000  H
  C241     1.0000 0.39573  0.82231  0.97945  Biso   1.000  C
  H192     1.0000 0.37580  0.81000  0.93150  Biso   1.000  H
  C242     1.0000 0.31312  0.00395  0.95826  Biso   1.000  C
  H193     1.0000 0.28880  0.01800  0.95630  Biso   1.000  H
  C243     1.0000 0.77088  0.69805  0.12364  Biso   1.000  C
  H194     1.0000 0.76570  0.72660  0.14010  Biso   1.000  H
  C244     1.0000 0.84078  0.46796  0.20870  Biso   1.000  C
  C245     1.0000 0.46024  0.81619  0.09305  Biso   1.000  C
  C246     1.0000 0.87815  0.53329  0.19274  Biso   1.000  C
  H195     1.0000 0.90110  0.54620  0.18440  Biso   1.000  H
  C247     1.0000 0.68922  0.73370  0.03104  Biso   1.000  C
  H196     1.0000 0.69820  0.74360  0.08860  Biso   1.000  H
  C248     1.0000 0.74448  0.67868  0.04865  Biso   1.000  C
  N70      1.0000 0.20507  0.79585  0.88931  Biso   1.000  N
  C249     1.0000 0.24316  0.81908  0.90704  Biso   1.000  C
  C250     1.0000 0.41992  0.88277  0.08085  Biso   1.000  C
  H197     1.0000 0.41620  0.91090  0.10140  Biso   1.000  H
  C251     1.0000 0.38588  0.96244  0.96309  Biso   1.000  C
  H198     1.0000 0.41040  0.94870  0.96530  Biso   1.000  H
  C252     1.0000 0.53417  0.81157  0.16973  Biso   1.000  C
  H199     1.0000 0.53900  0.84220  0.17000  Biso   1.000  H
  C253     1.0000 0.95912  0.67519  0.32889  Biso   1.000  C
  C254     1.0000 0.45477  0.85868  0.12276  Biso   1.000  C
  H200     1.0000 0.47470  0.87080  0.17100  Biso   1.000  H
  C255     1.0000 0.78675  0.61323  0.07263  Biso   1.000  C
  H201     1.0000 0.79210  0.58500  0.05500  Biso   1.000  H
  C256     1.0000 0.31654  0.86413  0.94252  Biso   1.000  C
  C257     1.0000 0.68602  0.69696  0.91118  Biso   1.000  C
  H202     1.0000 0.69180  0.67770  0.87180  Biso   1.000  H
  C258     1.0000 0.93194  0.69396  0.25464  Biso   1.000  C
  H203     1.0000 0.93780  0.72140  0.23450  Biso   1.000  H
  C259     1.0000 0.43065  0.79785  0.02200  Biso   1.000  C
  H204     1.0000 0.43410  0.76930  0.00280  Biso   1.000  H
  C260     1.0000 0.30925  0.83776  0.00530  Biso   1.000  C
  H205     1.0000 0.32920  0.83520  0.05990  Biso   1.000  H
  C261     1.0000 0.65346  0.72547  0.89521  Biso   1.000  C
  H206     1.0000 0.63290  0.72890  0.84170  Biso   1.000  H
  C262     1.0000 0.28727  0.86704  0.86045  Biso   1.000  C
  H207     1.0000 0.29260  0.88400  0.81720  Biso   1.000  H
  C263     1.0000 0.54318  0.74069  0.18920  Biso   1.000  C
  H208     1.0000 0.55570  0.71310  0.20620  Biso   1.000  H
  C264     1.0000 0.25023  0.84495  0.84251  Biso   1.000  C
  H209     1.0000 0.23030  0.84740  0.78790  Biso   1.000  H
  C265     1.0000 0.14895  0.76640  0.89970  Biso   1.000  C
  H210     1.0000 0.12750  0.75870  0.91980  Biso   1.000  H
  C266     1.0000 0.18073  0.79316  0.94174  Biso   1.000  C
  H211     1.0000 0.18530  0.80700  0.99540  Biso   1.000  H
  C267     1.0000 0.27233  0.81477  0.98799  Biso   1.000  C
  H212     1.0000 0.26750  0.79680  0.03050  Biso   1.000  H
  C268     1.0000 0.03869  0.75255  0.43790  Biso   1.000  C
  H213     1.0000 0.04960  0.78030  0.45900  Biso   1.000  H
  C269     1.0000 0.50267  0.74719  0.14700  Biso   1.000  C
  H214     1.0000 0.48250  0.72530  0.12930  Biso   1.000  H
  C270     1.0000 0.99902  0.74433  0.39150  Biso   1.000  C
  H215     1.0000 0.97800  0.76520  0.37380  Biso   1.000  H
  Zn11     1.0000 0.88029  0.29034  0.48838  Biso   1.000  Zn
  Zn12     1.0000 0.87774  0.28978  0.27156  Biso   1.000  Zn
  N71      1.0000 0.00268  0.29237  0.36421  Biso   1.000  N
  N72      1.0000 0.65046  0.10793  0.30259  Biso   1.000  N
  N73      1.0000 0.64804  0.84943  0.26026  Biso   1.000  N
  N74      1.0000 0.14392  0.64878  0.53335  Biso   1.000  N
  N75      1.0000 0.14603  0.38885  0.53686  Biso   1.000  N
  N76      1.0000 0.43980  0.21332  0.05117  Biso   1.000  N
  N77      1.0000 0.84437  0.24821  0.52995  Biso   1.000  N
  N78      1.0000 0.66324  0.92038  0.28853  Biso   1.000  N
  N79      1.0000 0.15728  0.57686  0.55159  Biso   1.000  N
  N80      1.0000 0.50418  0.19930  0.12442  Biso   1.000  N
  O6       1.0000 0.86603  0.26585  0.37166  Biso   1.000  O
  H216     1.0000 0.85160  0.23900  0.36260  Biso   1.000  H
  N81      1.0000 0.34671  0.25226  0.67776  Biso   1.000  N
  C271     1.0000 0.61334  0.13009  0.25954  Biso   1.000  C
  C272     1.0000 0.58488  0.11177  0.18524  Biso   1.000  C
  H217     1.0000 0.59020  0.08410  0.16500  Biso   1.000  H
  C273     1.0000 0.69051  0.99481  0.28155  Biso   1.000  C
  H218     1.0000 0.71340  0.98190  0.27290  Biso   1.000  H
  C274     1.0000 0.65309  0.06053  0.29795  Biso   1.000  C
  N82      1.0000 0.79146  0.20280  0.50154  Biso   1.000  N
  C275     1.0000 0.11705  0.50854  0.54074  Biso   1.000  C
  H219     1.0000 0.09460  0.52560  0.54160  Biso   1.000  H
  C276     1.0000 0.18398  0.45787  0.53719  Biso   1.000  C
  H220     1.0000 0.20630  0.44110  0.53470  Biso   1.000  H
  C277     1.0000 0.62493  0.98690  0.30404  Biso   1.000  C
  H221     1.0000 0.60410  0.96880  0.31040  Biso   1.000  H
  C278     1.0000 0.46649  0.18191  0.08950  Biso   1.000  C
  H222     1.0000 0.46000  0.15180  0.09200  Biso   1.000  H
  C279     1.0000 0.68723  0.04073  0.28491  Biso   1.000  C
  H223     1.0000 0.70810  0.05870  0.27840  Biso   1.000  H
  C280     1.0000 0.68617  0.13203  0.35185  Biso   1.000  C
  C281     1.0000 0.19050  0.59901  0.60726  Biso   1.000  C
  H224     1.0000 0.21410  0.58610  0.64550  Biso   1.000  H
  C282     1.0000 0.10980  0.36514  0.49218  Biso   1.000  C
  C283     1.0000 0.54881  0.13401  0.14089  Biso   1.000  C
  H225     1.0000 0.53010  0.12140  0.09130  Biso   1.000  H
  C284     1.0000 0.60404  0.17170  0.28965  Biso   1.000  C
  H226     1.0000 0.62230  0.18430  0.33980  Biso   1.000  H
  C285     1.0000 0.69005  0.85339  0.29943  Biso   1.000  C
  H227     1.0000 0.70870  0.82980  0.31130  Biso   1.000  H
  C286     1.0000 0.69980  0.89690  0.31774  Biso   1.000  C
  H228     1.0000 0.72580  0.90870  0.34460  Biso   1.000  H
  C287     1.0000 0.15303  0.52934  0.54337  Biso   1.000  C
  C288     1.0000 0.14780  0.43594  0.53630  Biso   1.000  C
  C289     1.0000 0.69479  0.17441  0.32587  Biso   1.000  C
  H229     1.0000 0.67750  0.18690  0.27450  Biso   1.000  H
  C290     1.0000 0.31244  0.27054  0.68164  Biso   1.000  C
  H230     1.0000 0.30190  0.26650  0.72710  Biso   1.000  H
  C291     1.0000 0.18227  0.64304  0.59569  Biso   1.000  C
  H231     1.0000 0.19950  0.66600  0.62480  Biso   1.000  H
  C292     1.0000 0.63305  0.89063  0.25492  Biso   1.000  C
  H232     1.0000 0.60540  0.89790  0.23120  Biso   1.000  H
  N83      1.0000 0.93735  0.28127  0.29741  Biso   1.000  N
  C293     1.0000 0.74807  0.13612  0.47653  Biso   1.000  C
  H233     1.0000 0.76630  0.12300  0.52610  Biso   1.000  H
  C294     1.0000 0.12977  0.60801  0.50795  Biso   1.000  C
  H234     1.0000 0.10460  0.60180  0.46620  Biso   1.000  H
  C295     1.0000 0.10427  0.32231  0.52055  Biso   1.000  C
  H235     1.0000 0.12420  0.31000  0.56850  Biso   1.000  H
  C296     1.0000 0.18688  0.50395  0.54174  Biso   1.000  C
  H236     1.0000 0.21120  0.51800  0.54370  Biso   1.000  H
  C297     1.0000 0.72912  0.19805  0.37636  Biso   1.000  C
  H237     1.0000 0.73430  0.22660  0.35990  Biso   1.000  H
  C298     1.0000 0.65922  0.96796  0.29130  Biso   1.000  C
  C299     1.0000 0.03976  0.31619  0.40695  Biso   1.000  C
  C300     1.0000 0.62185  0.03329  0.30726  Biso   1.000  C
  H238     1.0000 0.59890  0.04620  0.31560  Biso   1.000  H
  C301     1.0000 0.81078  0.23370  0.46896  Biso   1.000  C
  H239     1.0000 0.80180  0.24360  0.41140  Biso   1.000  H
  C302     1.0000 0.75552  0.17868  0.45135  Biso   1.000  C
  N84      1.0000 0.29493  0.29585  0.61069  Biso   1.000  N
  C303     1.0000 0.25684  0.31908  0.59296  Biso   1.000  C
  C304     1.0000 0.08008  0.38277  0.41915  Biso   1.000  C
  H240     1.0000 0.08380  0.41090  0.39860  Biso   1.000  H
  C305     1.0000 0.11412  0.46244  0.53691  Biso   1.000  C
  H241     1.0000 0.08960  0.44870  0.53470  Biso   1.000  H
  C306     1.0000 0.96583  0.31157  0.33027  Biso   1.000  C
  H242     1.0000 0.96100  0.34220  0.33000  Biso   1.000  H
  C307     1.0000 0.54088  0.17519  0.17111  Biso   1.000  C
  C308     1.0000 0.04523  0.35868  0.37724  Biso   1.000  C
  H243     1.0000 0.02530  0.37080  0.32900  Biso   1.000  H
  C309     1.0000 0.71325  0.11323  0.42737  Biso   1.000  C
  H244     1.0000 0.70790  0.08500  0.44500  Biso   1.000  H
  C310     1.0000 0.18346  0.36413  0.55748  Biso   1.000  C
  C311     1.0000 0.81398  0.19696  0.58882  Biso   1.000  C
  H245     1.0000 0.80820  0.17770  0.62820  Biso   1.000  H
  C312     1.0000 0.56806  0.19396  0.24536  Biso   1.000  C
  H246     1.0000 0.56220  0.22140  0.26550  Biso   1.000  H
  C313     1.0000 0.06935  0.29785  0.47800  Biso   1.000  C
  H247     1.0000 0.06590  0.26930  0.49720  Biso   1.000  H
  C314     1.0000 0.19075  0.33776  0.49470  Biso   1.000  C
  H248     1.0000 0.17080  0.33520  0.44010  Biso   1.000  H
  C315     1.0000 0.84654  0.22547  0.60479  Biso   1.000  C
  H249     1.0000 0.86710  0.22890  0.65830  Biso   1.000  H
  C316     1.0000 0.21273  0.36704  0.63955  Biso   1.000  C
  H250     1.0000 0.20740  0.38400  0.68280  Biso   1.000  H
  C317     1.0000 0.95682  0.24069  0.31080  Biso   1.000  C
  H251     1.0000 0.94430  0.21310  0.29380  Biso   1.000  H
  C318     1.0000 0.24977  0.34495  0.65749  Biso   1.000  C
  H252     1.0000 0.26970  0.34740  0.71210  Biso   1.000  H
  C319     1.0000 0.35105  0.26640  0.60030  Biso   1.000  C
  H253     1.0000 0.37250  0.25870  0.58020  Biso   1.000  H
  C320     1.0000 0.31927  0.29316  0.55826  Biso   1.000  C
  H254     1.0000 0.31470  0.30700  0.50460  Biso   1.000  H
  C321     1.0000 0.22767  0.31477  0.51201  Biso   1.000  C
  H255     1.0000 0.23250  0.29680  0.46950  Biso   1.000  H
  C322     1.0000 0.46131  0.25255  0.06210  Biso   1.000  C
  H256     1.0000 0.45040  0.28030  0.04100  Biso   1.000  H
  C323     1.0000 0.99733  0.24719  0.35300  Biso   1.000  C
  H257     1.0000 0.01750  0.22530  0.37070  Biso   1.000  H
  C324     1.0000 0.50098  0.24433  0.10850  Biso   1.000  C
  H258     1.0000 0.52200  0.26520  0.12620  Biso   1.000  H
  Zn13     1.0000 0.38029  0.20966  0.98838  Biso   1.000  Zn
  Zn14     1.0000 0.37774  0.21022  0.77156  Biso   1.000  Zn
  N85      1.0000 0.50268  0.20763  0.86421  Biso   1.000  N
  N86      1.0000 0.15046  0.39207  0.80259  Biso   1.000  N
  N87      1.0000 0.14804  0.65057  0.76026  Biso   1.000  N
  N88      1.0000 0.64392  0.85122  0.03335  Biso   1.000  N
  N89      1.0000 0.64603  0.11115  0.03686  Biso   1.000  N
  N90      1.0000 0.93980  0.28668  0.55117  Biso   1.000  N
  N91      1.0000 0.34437  0.25179  0.02995  Biso   1.000  N
  N92      1.0000 0.16324  0.57962  0.78853  Biso   1.000  N
  N93      1.0000 0.65728  0.92314  0.05159  Biso   1.000  N
  N94      1.0000 0.00418  0.30070  0.62442  Biso   1.000  N
  O7       1.0000 0.36603  0.23415  0.87166  Biso   1.000  O
  H259     1.0000 0.35160  0.26100  0.86260  Biso   1.000  H
  N95      1.0000 0.84671  0.24774  0.17776  Biso   1.000  N
  C325     1.0000 0.11334  0.36991  0.75954  Biso   1.000  C
  C326     1.0000 0.08488  0.38823  0.68524  Biso   1.000  C
  H260     1.0000 0.09020  0.41590  0.66500  Biso   1.000  H
  C327     1.0000 0.19051  0.50519  0.78155  Biso   1.000  C
  H261     1.0000 0.21340  0.51810  0.77290  Biso   1.000  H
  C328     1.0000 0.15309  0.43947  0.79795  Biso   1.000  C
  N96      1.0000 0.29146  0.29720  0.00154  Biso   1.000  N
  C329     1.0000 0.61705  0.99146  0.04074  Biso   1.000  C
  H262     1.0000 0.59460  0.97440  0.04160  Biso   1.000  H
  C330     1.0000 0.68398  0.04213  0.03719  Biso   1.000  C
  H263     1.0000 0.70630  0.05890  0.03470  Biso   1.000  H
  C331     1.0000 0.12493  0.51310  0.80404  Biso   1.000  C
  H264     1.0000 0.10410  0.53120  0.81040  Biso   1.000  H
  C332     1.0000 0.96649  0.31809  0.58950  Biso   1.000  C
  H265     1.0000 0.96000  0.34820  0.59200  Biso   1.000  H
  C333     1.0000 0.18723  0.45927  0.78491  Biso   1.000  C
  H266     1.0000 0.20810  0.44130  0.77840  Biso   1.000  H
  C334     1.0000 0.18617  0.36797  0.85185  Biso   1.000  C
  C335     1.0000 0.69050  0.90099  0.10726  Biso   1.000  C
  H267     1.0000 0.71410  0.91390  0.14550  Biso   1.000  H
  C336     1.0000 0.60980  0.13486  0.99218  Biso   1.000  C
  C337     1.0000 0.04881  0.36599  0.64089  Biso   1.000  C
  H268     1.0000 0.03010  0.37860  0.59130  Biso   1.000  H
  C338     1.0000 0.10404  0.32830  0.78965  Biso   1.000  C
  H269     1.0000 0.12230  0.31570  0.83980  Biso   1.000  H
  C339     1.0000 0.19005  0.64661  0.79943  Biso   1.000  C
  H270     1.0000 0.20870  0.67020  0.81130  Biso   1.000  H
  C340     1.0000 0.19980  0.60310  0.81774  Biso   1.000  C
  H271     1.0000 0.22580  0.59130  0.84460  Biso   1.000  H
  C341     1.0000 0.65303  0.97066  0.04337  Biso   1.000  C
  C342     1.0000 0.64780  0.06406  0.03630  Biso   1.000  C
  C343     1.0000 0.19479  0.32559  0.82587  Biso   1.000  C
  H272     1.0000 0.17750  0.31310  0.77450  Biso   1.000  H
  C344     1.0000 0.81244  0.22946  0.18164  Biso   1.000  C
  H273     1.0000 0.80190  0.23350  0.22710  Biso   1.000  H
  C345     1.0000 0.68227  0.85696  0.09569  Biso   1.000  C
  H274     1.0000 0.69950  0.83400  0.12480  Biso   1.000  H
  C346     1.0000 0.13305  0.60937  0.75492  Biso   1.000  C
  H275     1.0000 0.10540  0.60210  0.73120  Biso   1.000  H
  N97      1.0000 0.43735  0.21873  0.79741  Biso   1.000  N
  C347     1.0000 0.24807  0.36388  0.97653  Biso   1.000  C
  H276     1.0000 0.26630  0.37700  0.02610  Biso   1.000  H
  C348     1.0000 0.62977  0.89199  0.00795  Biso   1.000  C
  H277     1.0000 0.60460  0.89820  0.96620  Biso   1.000  H
  C349     1.0000 0.60427  0.17769  0.02055  Biso   1.000  C
  H278     1.0000 0.62420  0.19000  0.06850  Biso   1.000  H
  C350     1.0000 0.68688  0.99605  0.04174  Biso   1.000  C
  H279     1.0000 0.71120  0.98200  0.04370  Biso   1.000  H
  C351     1.0000 0.22912  0.30195  0.87636  Biso   1.000  C
  H280     1.0000 0.23430  0.27340  0.85990  Biso   1.000  H
  C352     1.0000 0.15922  0.53204  0.79130  Biso   1.000  C
  C353     1.0000 0.53976  0.18381  0.90695  Biso   1.000  C
  C354     1.0000 0.12185  0.46671  0.80726  Biso   1.000  C
  H281     1.0000 0.09890  0.45380  0.81560  Biso   1.000  H
  C355     1.0000 0.31078  0.26630  0.96896  Biso   1.000  C
  H282     1.0000 0.30180  0.25640  0.91140  Biso   1.000  H
  C356     1.0000 0.25552  0.32132  0.95135  Biso   1.000  C
  N98      1.0000 0.79493  0.20415  0.11069  Biso   1.000  N
  C357     1.0000 0.75684  0.18092  0.09296  Biso   1.000  C
  C358     1.0000 0.58008  0.11723  0.91915  Biso   1.000  C
  H283     1.0000 0.58380  0.08910  0.89860  Biso   1.000  H
  C359     1.0000 0.61412  0.03756  0.03691  Biso   1.000  C
  H284     1.0000 0.58960  0.05130  0.03470  Biso   1.000  H
  C360     1.0000 0.46583  0.18843  0.83027  Biso   1.000  C
  H285     1.0000 0.46100  0.15780  0.83000  Biso   1.000  H
  C361     1.0000 0.04088  0.32481  0.67111  Biso   1.000  C
  C362     1.0000 0.54523  0.14132  0.87724  Biso   1.000  C
  H286     1.0000 0.52530  0.12920  0.82900  Biso   1.000  H
  C363     1.0000 0.21325  0.38677  0.92737  Biso   1.000  C
  H287     1.0000 0.20790  0.41500  0.94500  Biso   1.000  H
  C364     1.0000 0.68346  0.13587  0.05748  Biso   1.000  C
  C365     1.0000 0.31398  0.30304  0.08882  Biso   1.000  C
  H288     1.0000 0.30820  0.32230  0.12820  Biso   1.000  H
  C366     1.0000 0.06806  0.30604  0.74536  Biso   1.000  C
  H289     1.0000 0.06220  0.27860  0.76550  Biso   1.000  H
  C367     1.0000 0.56935  0.20215  0.97800  Biso   1.000  C
  H290     1.0000 0.56590  0.23070  0.99720  Biso   1.000  H
  C368     1.0000 0.69075  0.16224  0.99470  Biso   1.000  C
  H291     1.0000 0.67080  0.16480  0.94010  Biso   1.000  H
  C369     1.0000 0.34654  0.27453  0.10479  Biso   1.000  C
  H292     1.0000 0.36710  0.27110  0.15830  Biso   1.000  H
  C370     1.0000 0.71273  0.13296  0.13955  Biso   1.000  C
  H293     1.0000 0.70740  0.11600  0.18280  Biso   1.000  H
  C371     1.0000 0.45682  0.25931  0.81080  Biso   1.000  C
  H294     1.0000 0.44430  0.28690  0.79380  Biso   1.000  H
  C372     1.0000 0.74977  0.15505  0.15749  Biso   1.000  C
  H295     1.0000 0.76970  0.15260  0.21210  Biso   1.000  H
  C373     1.0000 0.85105  0.23360  0.10030  Biso   1.000  C
  H296     1.0000 0.87250  0.24130  0.08020  Biso   1.000  H
  C374     1.0000 0.81927  0.20684  0.05826  Biso   1.000  C
  H297     1.0000 0.81470  0.19300  0.00460  Biso   1.000  H
  C375     1.0000 0.72767  0.18523  0.01201  Biso   1.000  C
  H298     1.0000 0.73250  0.20320  0.96950  Biso   1.000  H
  C376     1.0000 0.96131  0.24745  0.56210  Biso   1.000  C
  H299     1.0000 0.95040  0.21970  0.54100  Biso   1.000  H
  C377     1.0000 0.49733  0.25281  0.85300  Biso   1.000  C
  H300     1.0000 0.51750  0.27470  0.87070  Biso   1.000  H
  C378     1.0000 0.00098  0.25567  0.60850  Biso   1.000  C
  H301     1.0000 0.02200  0.23480  0.62620  Biso   1.000  H
  Zn15     1.0000 0.11971  0.70966  0.51162  Biso   1.000  Zn
  Zn16     1.0000 0.12226  0.71022  0.72844  Biso   1.000  Zn
  N99      1.0000 0.99732  0.70763  0.63579  Biso   1.000  N
  N100     1.0000 0.34954  0.89207  0.69741  Biso   1.000  N
  N101     1.0000 0.35196  0.15057  0.73974  Biso   1.000  N
  N102     1.0000 0.85608  0.35122  0.46665  Biso   1.000  N
  N103     1.0000 0.85397  0.61115  0.46314  Biso   1.000  N
  N104     1.0000 0.56020  0.78668  0.94883  Biso   1.000  N
  N105     1.0000 0.15563  0.75179  0.47005  Biso   1.000  N
  N106     1.0000 0.33676  0.07962  0.71147  Biso   1.000  N
  N107     1.0000 0.84272  0.42314  0.44841  Biso   1.000  N
  N108     1.0000 0.49582  0.80070  0.87558  Biso   1.000  N
  O8       1.0000 0.13397  0.73415  0.62834  Biso   1.000  O
  H302     1.0000 0.14840  0.76100  0.63740  Biso   1.000  H
  N109     1.0000 0.65329  0.74774  0.32224  Biso   1.000  N
  C379     1.0000 0.38666  0.86991  0.74046  Biso   1.000  C
  C380     1.0000 0.41512  0.88823  0.81476  Biso   1.000  C
  H303     1.0000 0.40980  0.91590  0.83500  Biso   1.000  H
  C381     1.0000 0.30949  0.00519  0.71845  Biso   1.000  C
  H304     1.0000 0.28660  0.01810  0.72710  Biso   1.000  H
  C382     1.0000 0.34691  0.93947  0.70205  Biso   1.000  C
  N110     1.0000 0.20854  0.79720  0.49846  Biso   1.000  N
  C383     1.0000 0.88295  0.49146  0.45926  Biso   1.000  C
  H305     1.0000 0.90540  0.47440  0.45840  Biso   1.000  H
  C384     1.0000 0.81602  0.54213  0.46281  Biso   1.000  C
  H306     1.0000 0.79370  0.55890  0.46530  Biso   1.000  H
  C385     1.0000 0.37507  0.01310  0.69596  Biso   1.000  C
  H307     1.0000 0.39590  0.03120  0.68960  Biso   1.000  H
  C386     1.0000 0.53351  0.81809  0.91050  Biso   1.000  C
  H308     1.0000 0.54000  0.84820  0.90800  Biso   1.000  H
  C387     1.0000 0.31277  0.95927  0.71509  Biso   1.000  C
  H309     1.0000 0.29190  0.94130  0.72160  Biso   1.000  H
  C388     1.0000 0.31383  0.86797  0.64815  Biso   1.000  C
  C389     1.0000 0.80950  0.40099  0.39274  Biso   1.000  C
  H310     1.0000 0.78590  0.41390  0.35450  Biso   1.000  H
  C390     1.0000 0.89020  0.63486  0.50782  Biso   1.000  C
  C391     1.0000 0.45119  0.86599  0.85911  Biso   1.000  C
  H311     1.0000 0.46990  0.87860  0.90870  Biso   1.000  H
  C392     1.0000 0.39596  0.82830  0.71035  Biso   1.000  C
  H312     1.0000 0.37770  0.81570  0.66020  Biso   1.000  H
  C393     1.0000 0.30995  0.14661  0.70057  Biso   1.000  C
  H313     1.0000 0.29130  0.17020  0.68870  Biso   1.000  H
  C394     1.0000 0.30020  0.10310  0.68226  Biso   1.000  C
  H314     1.0000 0.27420  0.09130  0.65540  Biso   1.000  H
  C395     1.0000 0.84697  0.47066  0.45663  Biso   1.000  C
  C396     1.0000 0.85220  0.56406  0.46370  Biso   1.000  C
  C397     1.0000 0.30521  0.82559  0.67413  Biso   1.000  C
  H315     1.0000 0.32250  0.81310  0.72550  Biso   1.000  H
  C398     1.0000 0.68756  0.72946  0.31836  Biso   1.000  C
  H316     1.0000 0.69810  0.73350  0.27290  Biso   1.000  H
  C399     1.0000 0.81773  0.35696  0.40431  Biso   1.000  C
  H317     1.0000 0.80050  0.33400  0.37520  Biso   1.000  H
  C400     1.0000 0.36695  0.10937  0.74508  Biso   1.000  C
  H318     1.0000 0.39460  0.10210  0.76880  Biso   1.000  H
  N111     1.0000 0.06265  0.71873  0.70259  Biso   1.000  N
  C401     1.0000 0.25193  0.86388  0.52347  Biso   1.000  C
  H319     1.0000 0.23370  0.87700  0.47390  Biso   1.000  H
  C402     1.0000 0.87023  0.39199  0.49205  Biso   1.000  C
  H320     1.0000 0.89540  0.39820  0.53380  Biso   1.000  H
  C403     1.0000 0.89573  0.67769  0.47945  Biso   1.000  C
  H321     1.0000 0.87580  0.69000  0.43150  Biso   1.000  H
  C404     1.0000 0.81312  0.49605  0.45826  Biso   1.000  C
  H322     1.0000 0.78880  0.48200  0.45630  Biso   1.000  H
  C405     1.0000 0.27088  0.80195  0.62364  Biso   1.000  C
  H323     1.0000 0.26570  0.77340  0.64010  Biso   1.000  H
  C406     1.0000 0.34078  0.03204  0.70870  Biso   1.000  C
  C407     1.0000 0.96024  0.68381  0.59305  Biso   1.000  C
  C408     1.0000 0.37815  0.96671  0.69274  Biso   1.000  C
  H324     1.0000 0.40110  0.95380  0.68440  Biso   1.000  H
  C409     1.0000 0.18922  0.76630  0.53104  Biso   1.000  C
  H325     1.0000 0.19820  0.75640  0.58860  Biso   1.000  H
  C410     1.0000 0.24448  0.82132  0.54865  Biso   1.000  C
  N112     1.0000 0.70507  0.70415  0.38931  Biso   1.000  N
  C411     1.0000 0.74316  0.68092  0.40704  Biso   1.000  C
  C412     1.0000 0.91992  0.61723  0.58085  Biso   1.000  C
  H326     1.0000 0.91620  0.58910  0.60140  Biso   1.000  H
  C413     1.0000 0.88588  0.53756  0.46309  Biso   1.000  C
  H327     1.0000 0.91040  0.55130  0.46530  Biso   1.000  H
  C414     1.0000 0.03417  0.68843  0.66973  Biso   1.000  C
  H328     1.0000 0.03900  0.65780  0.67000  Biso   1.000  H
  C415     1.0000 0.45912  0.82481  0.82889  Biso   1.000  C
  C416     1.0000 0.95477  0.64132  0.62276  Biso   1.000  C
  H329     1.0000 0.97470  0.62920  0.67100  Biso   1.000  H
  C417     1.0000 0.28675  0.88677  0.57263  Biso   1.000  C
  H330     1.0000 0.29210  0.91500  0.55500  Biso   1.000  H
  C418     1.0000 0.81654  0.63587  0.44252  Biso   1.000  C
  C419     1.0000 0.18602  0.80304  0.41118  Biso   1.000  C
  H331     1.0000 0.19180  0.82230  0.37180  Biso   1.000  H
  C420     1.0000 0.43194  0.80604  0.75464  Biso   1.000  C
  H332     1.0000 0.43780  0.77860  0.73450  Biso   1.000  H
  C421     1.0000 0.93065  0.70215  0.52200  Biso   1.000  C
  H333     1.0000 0.93410  0.73070  0.50280  Biso   1.000  H
  C422     1.0000 0.80925  0.66224  0.50530  Biso   1.000  C
  H334     1.0000 0.82920  0.66480  0.55990  Biso   1.000  H
  C423     1.0000 0.15346  0.77453  0.39521  Biso   1.000  C
  H335     1.0000 0.13290  0.77110  0.34170  Biso   1.000  H
  C424     1.0000 0.78727  0.63296  0.36045  Biso   1.000  C
  H336     1.0000 0.79260  0.61600  0.31720  Biso   1.000  H
  C425     1.0000 0.04318  0.75931  0.68920  Biso   1.000  C
  H337     1.0000 0.05570  0.78690  0.70620  Biso   1.000  H
  C426     1.0000 0.75023  0.65505  0.34251  Biso   1.000  C
  H338     1.0000 0.73030  0.65260  0.28790  Biso   1.000  H
  C427     1.0000 0.64895  0.73360  0.39970  Biso   1.000  C
  H339     1.0000 0.62750  0.74130  0.41980  Biso   1.000  H
  C428     1.0000 0.68073  0.70684  0.44174  Biso   1.000  C
  H340     1.0000 0.68530  0.69300  0.49540  Biso   1.000  H
  C429     1.0000 0.77233  0.68523  0.48799  Biso   1.000  C
  H341     1.0000 0.76750  0.70320  0.53050  Biso   1.000  H
  C430     1.0000 0.53869  0.74745  0.93790  Biso   1.000  C
  H342     1.0000 0.54960  0.71970  0.95900  Biso   1.000  H
  C431     1.0000 0.00267  0.75281  0.64700  Biso   1.000  C
  H343     1.0000 0.98250  0.77470  0.62930  Biso   1.000  H
  C432     1.0000 0.49902  0.75567  0.89150  Biso   1.000  C
  H344     1.0000 0.47800  0.73480  0.87380  Biso   1.000  H
