data_cm8027687_si_002_clean
_audit_creation_date              2015-08-19
_audit_creation_method            'Materials Studio'
_symmetry_space_group_name_H-M    'P1'
_symmetry_Int_Tables_number       1
_symmetry_cell_setting            triclinic
loop_
_symmetry_equiv_pos_as_xyz
  x,y,z
_cell_length_a                    17.6477
_cell_length_b                    17.6591
_cell_length_c                    42.6280
_cell_angle_alpha                 90.0000
_cell_angle_beta                  90.0000
_cell_angle_gamma                 90.0000
loop_
_atom_site_label
_atom_site_type_symbol
_atom_site_fract_x
_atom_site_fract_y
_atom_site_fract_z
_atom_site_U_iso_or_equiv
_atom_site_adp_type
_atom_site_occupancy
Si1    Si    0.74050   0.96451   0.49025   0.01267  Uiso   1.00
H1     H     0.20750   0.08410   0.34510   0.01267  Uiso   1.00
H2     H     0.87560   0.62380   0.70120   0.01267  Uiso   1.00
H3     H     0.17610   0.93020   0.37300   0.01267  Uiso   1.00
H4     H     0.68230   0.43240   0.64930   0.01267  Uiso   1.00
H5     H     0.62730   0.92590   0.53710   0.01267  Uiso   1.00
H6     H     0.86720   0.50080   0.63720   0.01267  Uiso   1.00
H7     H     0.85030   0.41030   0.59810   0.01267  Uiso   1.00
H8     H     0.89150   0.09250   0.57020   0.01267  Uiso   1.00
H9     H     0.83330   0.24790   0.66450   0.01267  Uiso   1.00
H10    H     0.20300   0.81170   0.23740   0.01267  Uiso   1.00
H11    H     0.57330   0.92740   0.48000   0.01267  Uiso   1.00
H12    H     0.81720   0.58770   0.67670   0.01267  Uiso   1.00
H13    H     0.70130   0.51300   0.60680   0.01267  Uiso   1.00
H14    H     0.86270   0.99750   0.53450   0.01267  Uiso   1.00
H15    H     0.10930   0.13550   0.31430   0.01267  Uiso   1.00
H16    H     0.67270   0.10880   0.50950   0.01267  Uiso   1.00
H17    H     0.63230   0.11660   0.40710   0.01267  Uiso   1.00
H18    H     0.85070   0.33880   0.70340   0.01267  Uiso   1.00
H19    H     0.29240   0.80230   0.23260   0.01267  Uiso   1.00
H20    H     0.85930   0.83060   0.40370   0.01267  Uiso   1.00
H21    H     0.70040   0.20370   0.54540   0.01267  Uiso   1.00
H22    H     0.58100   0.53880   0.74340   0.01267  Uiso   1.00
H23    H     0.90610   0.58770   0.66920   0.01267  Uiso   1.00
H24    H     0.30240   0.06840   0.38300   0.01267  Uiso   1.00
H25    H     0.26730   0.92390   0.33390   0.01267  Uiso   1.00
H26    H     0.63720   0.69120   0.66070   0.01267  Uiso   1.00
H27    H     0.77020   0.85230   0.44230   0.01267  Uiso   1.00
H28    H     0.51800   0.49640   0.72290   0.01267  Uiso   1.00
H29    H     0.78320   0.71300   0.53570   0.01267  Uiso   1.00
H30    H     0.36530   0.15630   0.28330   0.01267  Uiso   1.00
H31    H     0.61960   0.60960   0.70300   0.01267  Uiso   1.00
H32    H     0.88990   0.03210   0.47340   0.01267  Uiso   1.00
H33    H     0.12540   0.04910   0.30510   0.01267  Uiso   1.00
H34    H     0.60550   0.82790   0.57170   0.01267  Uiso   1.00
H35    H     0.25200   0.76610   0.26270   0.01267  Uiso   1.00
H36    H     0.08170   0.10330   0.28110   0.01267  Uiso   1.00
H37    H     0.80500   0.81230   0.50040   0.01267  Uiso   1.00
H38    H     0.98060   0.01070   0.43520   0.01267  Uiso   1.00
H39    H     0.48200   0.96840   0.44440   0.01267  Uiso   1.00
H40    H     0.72370   0.07490   0.44240   0.01267  Uiso   1.00
H41    H     0.10700   0.86320   0.27090   0.01267  Uiso   1.00
H42    H     0.45960   0.14130   0.32140   0.01267  Uiso   1.00
H43    H     0.01520   0.86540   0.31010   0.01267  Uiso   1.00
H44    H     0.55290   0.45590   0.75320   0.01267  Uiso   1.00
C1     C     0.25200   0.80910   0.24816   0.01267  Uiso   1.00
C2     C     0.53140   0.98980   0.44381   0.01267  Uiso   1.00
C3     C     0.06610   0.87840   0.31497   0.01267  Uiso   1.00
C4     C     0.21580   0.91320   0.32904   0.01267  Uiso   1.00
C5     C     0.40870   0.12780   0.32614   0.01267  Uiso   1.00
C6     C     0.35270   0.13680   0.30343   0.01267  Uiso   1.00
C7     C     0.08530   0.89890   0.34556   0.01267  Uiso   1.00
C8     C     0.67700   0.66050   0.60272   0.01267  Uiso   1.00
C9     C     0.71750   0.10540   0.52173   0.01267  Uiso   1.00
C10    C     0.39100   0.09940   0.35554   0.01267  Uiso   1.00
C11    C     0.66990   0.61010   0.62907   0.01267  Uiso   1.00
C12    C     0.86130   0.42790   0.67401   0.01267  Uiso   1.00
C13    C     0.63580   0.59000   0.68333   0.01267  Uiso   1.00
C14    C     0.12070   0.87670   0.29170   0.01267  Uiso   1.00
C15    C     0.31570   0.08480   0.36252   0.01267  Uiso   1.00
C16    C     0.71780   0.87930   0.51469   0.01267  Uiso   1.00
C17    C     0.76570   0.04300   0.51778   0.01267  Uiso   1.00
C18    C     0.16190   0.91630   0.35230   0.01267  Uiso   1.00
C19    C     0.86060   0.44910   0.64274   0.01267  Uiso   1.00
C20    C     0.84030   0.29950   0.65881   0.01267  Uiso   1.00
C21    C     0.84010   0.32030   0.62717   0.01267  Uiso   1.00
C22    C     0.93760   0.97850   0.43654   0.01267  Uiso   1.00
C23    C     0.81590   0.21660   0.58391   0.01267  Uiso   1.00
C24    C     0.82010   0.94400   0.46241   0.01267  Uiso   1.00
C25    C     0.65940   0.99610   0.46480   0.01267  Uiso   1.00
C26    C     0.19570   0.89470   0.29859   0.01267  Uiso   1.00
C27    C     0.49360   0.06760   0.39841   0.01267  Uiso   1.00
C28    C     0.64640   0.82440   0.55734   0.01267  Uiso   1.00
C29    C     0.54840   0.04510   0.42178   0.01267  Uiso   1.00
C30    C     0.68260   0.70330   0.58130   0.01267  Uiso   1.00
C31    C     0.86590   0.87170   0.41788   0.01267  Uiso   1.00
C32    C     0.68400   0.53300   0.62623   0.01267  Uiso   1.00
C33    C     0.64620   0.63850   0.65825   0.01267  Uiso   1.00
C34    C     0.75140   0.75640   0.53606   0.01267  Uiso   1.00
C35    C     0.67470   0.05270   0.44284   0.01267  Uiso   1.00
C36    C     0.44830   0.08440   0.37867   0.01267  Uiso   1.00
C37    C     0.12170   0.10090   0.29703   0.01267  Uiso   1.00
C38    C     0.81300   0.88470   0.44095   0.01267  Uiso   1.00
C39    C     0.85030   0.39530   0.61948   0.01267  Uiso   1.00
C40    C     0.64880   0.51340   0.68008   0.01267  Uiso   1.00
C41    C     0.65920   0.88260   0.53654   0.01267  Uiso   1.00
C42    C     0.62050   0.07760   0.42166   0.01267  Uiso   1.00
C43    C     0.92910   0.91870   0.41520   0.01267  Uiso   1.00
C44    C     0.84690   0.09630   0.55779   0.01267  Uiso   1.00
C45    C     0.69240   0.76060   0.55765   0.01267  Uiso   1.00
C46    C     0.58590   0.96540   0.46507   0.01267  Uiso   1.00
C47    C     0.56390   0.48950   0.73550   0.01267  Uiso   1.00
C48    C     0.88370   0.99080   0.45939   0.01267  Uiso   1.00
C49    C     0.67310   0.48510   0.65157   0.01267  Uiso   1.00
C50    C     0.25900   0.09390   0.33995   0.01267  Uiso   1.00
C51    C     0.85080   0.35340   0.68193   0.01267  Uiso   1.00
C52    C     0.82960   0.03970   0.53640   0.01267  Uiso   1.00
C53    C     0.86800   0.58330   0.68584   0.01267  Uiso   1.00
C54    C     0.82780   0.26370   0.60317   0.01267  Uiso   1.00
C55    C     0.79940   0.15860   0.56118   0.01267  Uiso   1.00
C56    C     0.76420   0.81560   0.51483   0.01267  Uiso   1.00
C57    C     0.73400   0.16210   0.54310   0.01267  Uiso   1.00
C58    C     0.02930   0.90270   0.36986   0.01267  Uiso   1.00
C59    C     0.98400   0.90810   0.39059   0.01267  Uiso   1.00
C60    C     0.27850   0.11710   0.31029   0.01267  Uiso   1.00
S1     S     0.26783   0.89549   0.26964   0.01267  Uiso   1.00
S2     S     0.21079   0.12819   0.27980   0.01267  Uiso   1.00
S3     S     0.63743   0.44811   0.71148   0.01267  Uiso   1.00
S4     S     0.87724   0.49429   0.70454   0.01267  Uiso   1.00
Si2    Si    0.75950   0.46451   0.50975   0.01267  Uiso   1.00
H45    H     0.39070   0.63550   0.68570   0.01267  Uiso   1.00
H46    H     0.62440   0.12380   0.29880   0.01267  Uiso   1.00
H47    H     0.24800   0.26610   0.73730   0.01267  Uiso   1.00
H48    H     0.98200   0.99640   0.27710   0.01267  Uiso   1.00
H49    H     0.59390   0.08770   0.33080   0.01267  Uiso   1.00
H50    H     0.19760   0.56840   0.61700   0.01267  Uiso   1.00
H51    H     0.88040   0.10960   0.29700   0.01267  Uiso   1.00
H52    H     0.92670   0.42740   0.52000   0.01267  Uiso   1.00
H53    H     0.29700   0.31170   0.76260   0.01267  Uiso   1.00
H54    H     0.87270   0.42590   0.46290   0.01267  Uiso   1.00
H55    H     0.32390   0.43020   0.62700   0.01267  Uiso   1.00
H56    H     0.39300   0.36320   0.72910   0.01267  Uiso   1.00
H57    H     0.79960   0.70370   0.45460   0.01267  Uiso   1.00
H58    H     0.86770   0.61660   0.59290   0.01267  Uiso   1.00
H59    H     0.13470   0.65630   0.71670   0.01267  Uiso   1.00
H60    H     0.04040   0.64130   0.67860   0.01267  Uiso   1.00
H61    H     0.89450   0.32790   0.42830   0.01267  Uiso   1.00
H62    H     0.37460   0.54910   0.69490   0.01267  Uiso   1.00
H63    H     0.79870   0.01300   0.39320   0.01267  Uiso   1.00
H64    H     0.71680   0.21300   0.46430   0.01267  Uiso   1.00
H65    H     0.63730   0.49750   0.46550   0.01267  Uiso   1.00
H66    H     0.41830   0.60330   0.71890   0.01267  Uiso   1.00
H67    H     0.86280   0.19120   0.33930   0.01267  Uiso   1.00
H68    H     0.66670   0.74790   0.33550   0.01267  Uiso   1.00
H69    H     0.51940   0.51070   0.56480   0.01267  Uiso   1.00
H70    H     0.48480   0.36540   0.68990   0.01267  Uiso   1.00
H71    H     0.81770   0.93240   0.35070   0.01267  Uiso   1.00
H72    H     0.77630   0.57490   0.55760   0.01267  Uiso   1.00
H73    H     0.23270   0.42390   0.66610   0.01267  Uiso   1.00
H74    H     0.01800   0.46840   0.55560   0.01267  Uiso   1.00
H75    H     0.64070   0.33060   0.59630   0.01267  Uiso   1.00
H76    H     0.69500   0.31230   0.49960   0.01267  Uiso   1.00
H77    H     0.68280   0.08770   0.32330   0.01267  Uiso   1.00
H78    H     0.94710   0.95590   0.24680   0.01267  Uiso   1.00
H79    H     0.82730   0.60880   0.49050   0.01267  Uiso   1.00
H80    H     0.64970   0.91030   0.40190   0.01267  Uiso   1.00
H81    H     0.63280   0.00080   0.36280   0.01267  Uiso   1.00
H82    H     0.20760   0.30230   0.76740   0.01267  Uiso   1.00
H83    H     0.60850   0.59250   0.42980   0.01267  Uiso   1.00
H84    H     0.29250   0.58410   0.65490   0.01267  Uiso   1.00
H85    H     0.61010   0.53210   0.52660   0.01267  Uiso   1.00
H86    H     0.64930   0.83880   0.29660   0.01267  Uiso   1.00
H87    H     0.72980   0.35230   0.55770   0.01267  Uiso   1.00
H88    H     0.91900   0.03880   0.25660   0.01267  Uiso   1.00
C61    C     0.64970   0.89530   0.38052   0.01267  Uiso   1.00
C62    C     0.65970   0.79950   0.34119   0.01267  Uiso   1.00
C63    C     0.81740   0.20330   0.41870   0.01267  Uiso   1.00
C64    C     0.64920   0.85340   0.31807   0.01267  Uiso   1.00
C65    C     0.10900   0.59940   0.64446   0.01267  Uiso   1.00
C66    C     0.41470   0.39890   0.65444   0.01267  Uiso   1.00
C67    C     0.81600   0.03300   0.37377   0.01267  Uiso   1.00
C68    C     0.76600   0.66210   0.45690   0.01267  Uiso   1.00
C69    C     0.43390   0.37840   0.68503   0.01267  Uiso   1.00
C70    C     0.80760   0.26060   0.44235   0.01267  Uiso   1.00
C71    C     0.57090   0.41870   0.58480   0.01267  Uiso   1.00
C72    C     0.86420   0.09000   0.31667   0.01267  Uiso   1.00
C73    C     0.68410   0.71660   0.41609   0.01267  Uiso   1.00
C74    C     0.85360   0.32440   0.44266   0.01267  Uiso   1.00
C75    C     0.56240   0.47850   0.56346   0.01267  Uiso   1.00
C76    C     0.82300   0.16050   0.39728   0.01267  Uiso   1.00
C77    C     0.73580   0.31560   0.48517   0.01267  Uiso   1.00
C78    C     0.09130   0.62780   0.67386   0.01267  Uiso   1.00
C79    C     0.68700   0.38470   0.55905   0.01267  Uiso   1.00
C80    C     0.93610   0.98950   0.26450   0.01267  Uiso   1.00
C81    C     0.84060   0.49610   0.53520   0.01267  Uiso   1.00
C82    C     0.91410   0.46540   0.53493   0.01267  Uiso   1.00
C83    C     0.37930   0.37670   0.70830   0.01267  Uiso   1.00
C84    C     0.05170   0.58440   0.62133   0.01267  Uiso   1.00
C85    C     0.82530   0.55270   0.55716   0.01267  Uiso   1.00
C86    C     0.87950   0.57760   0.57834   0.01267  Uiso   1.00
C87    C     0.78250   0.60540   0.47827   0.01267  Uiso   1.00
C88    C     0.63200   0.08330   0.31416   0.01267  Uiso   1.00
C89    C     0.18430   0.58480   0.63748   0.01267  Uiso   1.00
C90    C     0.33810   0.41630   0.64770   0.01267  Uiso   1.00
C91    C     0.84080   0.38260   0.46346   0.01267  Uiso   1.00
C92    C     0.61630   0.49080   0.54061   0.01267  Uiso   1.00
C93    C     0.37830   0.60090   0.70297   0.01267  Uiso   1.00
C94    C     0.30430   0.39470   0.70141   0.01267  Uiso   1.00
C95    C     0.70060   0.65860   0.43882   0.01267  Uiso   1.00
C96    C     0.85380   0.13850   0.34175   0.01267  Uiso   1.00
C97    C     0.83010   0.11010   0.37093   0.01267  Uiso   1.00
C98    C     0.24100   0.59390   0.66005   0.01267  Uiso   1.00
C99    C     0.63870   0.92790   0.32599   0.01267  Uiso   1.00
C100   C     0.24800   0.30910   0.75184   0.01267  Uiso   1.00
C101   C     0.67220   0.76370   0.39683   0.01267  Uiso   1.00
C102   C     0.63410   0.37170   0.58212   0.01267  Uiso   1.00
C103   C     0.51600   0.40810   0.60941   0.01267  Uiso   1.00
C104   C     0.28420   0.41320   0.67096   0.01267  Uiso   1.00
C105   C     0.67990   0.44400   0.53759   0.01267  Uiso   1.00
C106   C     0.47070   0.40270   0.63014   0.01267  Uiso   1.00
C107   C     0.95160   0.54510   0.57822   0.01267  Uiso   1.00
C108   C     0.00640   0.56760   0.60159   0.01267  Uiso   1.00
C109   C     0.65310   0.59630   0.44221   0.01267  Uiso   1.00
C110   C     0.22150   0.61710   0.68971   0.01267  Uiso   1.00
C111   C     0.65990   0.82030   0.37283   0.01267  Uiso   1.00
C112   C     0.85120   0.01340   0.31992   0.01267  Uiso   1.00
C113   C     0.63940   0.94910   0.35726   0.01267  Uiso   1.00
C114   C     0.67040   0.53970   0.46360   0.01267  Uiso   1.00
C115   C     0.14730   0.63680   0.69657   0.01267  Uiso   1.00
C116   C     0.82690   0.98510   0.34843   0.01267  Uiso   1.00
C117   C     0.73430   0.54300   0.48222   0.01267  Uiso   1.00
C118   C     0.78220   0.37930   0.48531   0.01267  Uiso   1.00
C119   C     0.74860   0.25640   0.46394   0.01267  Uiso   1.00
C120   C     0.96860   0.48980   0.55619   0.01267  Uiso   1.00
S5     S     0.23217   0.39549   0.73036   0.01267  Uiso   1.00
S6     S     0.86257   0.94811   0.28852   0.01267  Uiso   1.00
S7     S     0.62276   0.99429   0.29546   0.01267  Uiso   1.00
S8     S     0.28921   0.62819   0.72020   0.01267  Uiso   1.00
Si3    Si    0.24050   0.03549   0.00975   0.01267  Uiso   1.00
H89    H     0.60930   0.86450   0.18570   0.01267  Uiso   1.00
H90    H     0.62540   0.95090   0.19490   0.01267  Uiso   1.00
H91    H     0.20040   0.79630   0.95460   0.01267  Uiso   1.00
H92    H     0.01800   0.50360   0.77710   0.01267  Uiso   1.00
H93    H     0.18230   0.56760   0.85070   0.01267  Uiso   1.00
H94    H     0.30500   0.18770   0.99960   0.01267  Uiso   1.00
H95    H     0.27020   0.14770   0.05770   0.01267  Uiso   1.00
H96    H     0.37560   0.37620   0.79880   0.01267  Uiso   1.00
H97    H     0.51520   0.13460   0.18990   0.01267  Uiso   1.00
H98    H     0.38990   0.96790   0.02660   0.01267  Uiso   1.00
H99    H     0.60700   0.13680   0.22910   0.01267  Uiso   1.00
H100   H     0.12730   0.07410   0.96290   0.01267  Uiso   1.00
H101   H     0.08100   0.46120   0.75660   0.01267  Uiso   1.00
H102   H     0.39150   0.90750   0.92980   0.01267  Uiso   1.00
H103   H     0.48060   0.98930   0.06480   0.01267  Uiso   1.00
H104   H     0.58170   0.89670   0.21890   0.01267  Uiso   1.00
H105   H     0.70750   0.91590   0.15490   0.01267  Uiso   1.00
H106   H     0.70300   0.18830   0.26260   0.01267  Uiso   1.00
H107   H     0.05290   0.54410   0.74680   0.01267  Uiso   1.00
H108   H     0.79240   0.19770   0.26740   0.01267  Uiso   1.00
H109   H     0.22370   0.92510   0.05760   0.01267  Uiso   1.00
H110   H     0.33330   0.75210   0.83550   0.01267  Uiso   1.00
H111   H     0.28320   0.28700   0.96430   0.01267  Uiso   1.00
H112   H     0.07330   0.07260   0.02000   0.01267  Uiso   1.00
H113   H     0.95960   0.85870   0.17860   0.01267  Uiso   1.00
H114   H     0.35930   0.16940   0.09630   0.01267  Uiso   1.00
H115   H     0.13230   0.88340   0.09290   0.01267  Uiso   1.00
H116   H     0.31720   0.41230   0.82330   0.01267  Uiso   1.00
H117   H     0.75200   0.23390   0.23730   0.01267  Uiso   1.00
H118   H     0.36270   0.00250   0.96550   0.01267  Uiso   1.00
H119   H     0.80240   0.93160   0.11700   0.01267  Uiso   1.00
H120   H     0.40610   0.41230   0.83080   0.01267  Uiso   1.00
H121   H     0.35030   0.58970   0.90190   0.01267  Uiso   1.00
H122   H     0.10550   0.17210   0.92830   0.01267  Uiso   1.00
H123   H     0.11960   0.39040   0.79700   0.01267  Uiso   1.00
H124   H     0.86530   0.84370   0.21670   0.01267  Uiso   1.00
H125   H     0.35070   0.66120   0.79660   0.01267  Uiso   1.00
H126   H     0.17270   0.89120   0.99050   0.01267  Uiso   1.00
H127   H     0.13720   0.30880   0.83930   0.01267  Uiso   1.00
H128   H     0.20130   0.48700   0.89320   0.01267  Uiso   1.00
H129   H     0.98200   0.03160   0.05560   0.01267  Uiso   1.00
H130   H     0.67610   0.06980   0.12700   0.01267  Uiso   1.00
H131   H     0.36720   0.49920   0.86280   0.01267  Uiso   1.00
H132   H     0.76730   0.07610   0.16610   0.01267  Uiso   1.00
C121   C     0.75200   0.19090   0.25184   0.01267  Uiso   1.00
C122   C     0.36590   0.12830   0.08212   0.01267  Uiso   1.00
C123   C     0.19240   0.23940   0.94235   0.01267  Uiso   1.00
C124   C     0.36060   0.55090   0.85726   0.01267  Uiso   1.00
C125   C     0.08590   0.03460   0.03493   0.01267  Uiso   1.00
C126   C     0.56610   0.12160   0.18503   0.01267  Uiso   1.00
C127   C     0.36800   0.41670   0.81416   0.01267  Uiso   1.00
C128   C     0.26570   0.95700   0.98222   0.01267  Uiso   1.00
C129   C     0.13580   0.41000   0.81667   0.01267  Uiso   1.00
C130   C     0.35030   0.60470   0.88052   0.01267  Uiso   1.00
C131   C     0.06390   0.51050   0.76450   0.01267  Uiso   1.00
C132   C     0.32780   0.73630   0.89683   0.01267  Uiso   1.00
C133   C     0.89100   0.90060   0.14446   0.01267  Uiso   1.00
C134   C     0.81570   0.91520   0.13748   0.01267  Uiso   1.00
C135   C     0.03140   0.01020   0.05619   0.01267  Uiso   1.00
C136   C     0.31300   0.11530   0.05905   0.01267  Uiso   1.00
C137   C     0.25140   0.24360   0.96394   0.01267  Uiso   1.00
C138   C     0.23400   0.83790   0.95690   0.01267  Uiso   1.00
C139   C     0.75900   0.90610   0.16005   0.01267  Uiso   1.00
C140   C     0.12050   0.92240   0.07834   0.01267  Uiso   1.00
C141   C     0.35080   0.64660   0.81807   0.01267  Uiso   1.00
C142   C     0.21780   0.12070   0.98531   0.01267  Uiso   1.00
C143   C     0.14880   0.48660   0.81992   0.01267  Uiso   1.00
C144   C     0.18400   0.46700   0.87377   0.01267  Uiso   1.00
C145   C     0.62070   0.12330   0.20830   0.01267  Uiso   1.00
C146   C     0.66190   0.08370   0.14770   0.01267  Uiso   1.00
C147   C     0.17310   0.51490   0.84843   0.01267  Uiso   1.00
C148   C     0.14640   0.17560   0.94266   0.01267  Uiso   1.00
C149   C     0.62170   0.89910   0.20297   0.01267  Uiso   1.00
C150   C     0.17470   0.94730   0.05716   0.01267  Uiso   1.00
C151   C     0.29940   0.84140   0.93882   0.01267  Uiso   1.00
C152   C     0.15920   0.11740   0.96346   0.01267  Uiso   1.00
C153   C     0.94830   0.91560   0.12133   0.01267  Uiso   1.00
C154   C     0.04840   0.95490   0.07822   0.01267  Uiso   1.00
C155   C     0.99360   0.93240   0.10159   0.01267  Uiso   1.00
C156   C     0.18260   0.29670   0.91870   0.01267  Uiso   1.00
C157   C     0.85270   0.86320   0.19657   0.01267  Uiso   1.00
C158   C     0.42910   0.08130   0.08480   0.01267  Uiso   1.00
C159   C     0.17700   0.33950   0.89728   0.01267  Uiso   1.00
C160   C     0.14620   0.36150   0.84175   0.01267  Uiso   1.00
C161   C     0.21750   0.89460   0.97827   0.01267  Uiso   1.00
C162   C     0.32010   0.05600   0.03759   0.01267  Uiso   1.00
C163   C     0.31590   0.78340   0.91609   0.01267  Uiso   1.00
C164   C     0.71580   0.08680   0.17096   0.01267  Uiso   1.00
C165   C     0.58530   0.10110   0.15444   0.01267  Uiso   1.00
C166   C     0.52930   0.09730   0.13014   0.01267  Uiso   1.00
C167   C     0.15940   0.00390   0.03520   0.01267  Uiso   1.00
C168   C     0.69570   0.10530   0.20141   0.01267  Uiso   1.00
C169   C     0.43760   0.02150   0.06346   0.01267  Uiso   1.00
C170   C     0.48400   0.09190   0.10941   0.01267  Uiso   1.00
C171   C     0.16990   0.38990   0.87093   0.01267  Uiso   1.00
C172   C     0.34010   0.67970   0.87283   0.01267  Uiso   1.00
C173   C     0.34030   0.70050   0.84119   0.01267  Uiso   1.00
C174   C     0.34690   0.90370   0.94221   0.01267  Uiso   1.00
C175   C     0.77850   0.88290   0.18971   0.01267  Uiso   1.00
C176   C     0.90870   0.87220   0.17386   0.01267  Uiso   1.00
C177   C     0.26420   0.18440   0.98517   0.01267  Uiso   1.00
C178   C     0.38370   0.00920   0.04061   0.01267  Uiso   1.00
C179   C     0.36130   0.57210   0.82599   0.01267  Uiso   1.00
C180   C     0.32960   0.96030   0.96360   0.01267  Uiso   1.00
S9     S     0.13743   0.55189   0.78852   0.01267  Uiso   1.00
S10    S     0.71079   0.87181   0.22020   0.01267  Uiso   1.00
S11    S     0.76783   0.10451   0.23036   0.01267  Uiso   1.00
S12    S     0.37724   0.50571   0.79546   0.01267  Uiso   1.00
Si4    Si    0.25950   0.03549   0.50975   0.01267  Uiso   1.00
H133   H     0.14070   0.16940   0.59630   0.01267  Uiso   1.00
H134   H     0.98480   0.13460   0.68990   0.01267  Uiso   1.00
H135   H     0.41900   0.46120   0.25660   0.01267  Uiso   1.00
H136   H     0.19500   0.18770   0.49960   0.01267  Uiso   1.00
H137   H     0.21680   0.28700   0.46430   0.01267  Uiso   1.00
H138   H     0.42670   0.07260   0.52000   0.01267  Uiso   1.00
H139   H     0.29870   0.48700   0.39320   0.01267  Uiso   1.00
H140   H     0.13280   0.49920   0.36280   0.01267  Uiso   1.00
H141   H     0.12440   0.37620   0.29880   0.01267  Uiso   1.00
H142   H     0.54040   0.85870   0.67860   0.01267  Uiso   1.00
H143   H     0.09390   0.41230   0.33080   0.01267  Uiso   1.00
H144   H     0.31770   0.56760   0.35070   0.01267  Uiso   1.00
H145   H     0.10850   0.90750   0.42980   0.01267  Uiso   1.00
H146   H     0.38040   0.39040   0.29700   0.01267  Uiso   1.00
H147   H     0.70760   0.19770   0.76740   0.01267  Uiso   1.00
H148   H     0.01940   0.98930   0.56480   0.01267  Uiso   1.00
H149   H     0.29960   0.79630   0.45460   0.01267  Uiso   1.00
H150   H     0.36280   0.30880   0.33930   0.01267  Uiso   1.00
H151   H     0.11010   0.96790   0.52660   0.01267  Uiso   1.00
H152   H     0.16670   0.75210   0.33550   0.01267  Uiso   1.00
H153   H     0.69760   0.93160   0.61700   0.01267  Uiso   1.00
H154   H     0.32730   0.89120   0.49050   0.01267  Uiso   1.00
H155   H     0.39450   0.17210   0.42830   0.01267  Uiso   1.00
H156   H     0.27630   0.92510   0.55760   0.01267  Uiso   1.00
H157   H     0.91830   0.89670   0.71890   0.01267  Uiso   1.00
H158   H     0.48200   0.50360   0.27710   0.01267  Uiso   1.00
H159   H     0.82390   0.06980   0.62700   0.01267  Uiso   1.00
H160   H     0.73270   0.07610   0.66610   0.01267  Uiso   1.00
H161   H     0.63470   0.84370   0.71670   0.01267  Uiso   1.00
H162   H     0.14970   0.58970   0.40190   0.01267  Uiso   1.00
H163   H     0.44710   0.54410   0.24680   0.01267  Uiso   1.00
H164   H     0.79700   0.18830   0.76260   0.01267  Uiso   1.00
H165   H     0.36770   0.88340   0.59290   0.01267  Uiso   1.00
H166   H     0.74800   0.23390   0.73730   0.01267  Uiso   1.00
H167   H     0.87460   0.95090   0.69490   0.01267  Uiso   1.00
H168   H     0.79250   0.91590   0.65490   0.01267  Uiso   1.00
H169   H     0.37270   0.07410   0.46290   0.01267  Uiso   1.00
H170   H     0.13730   0.00250   0.46550   0.01267  Uiso   1.00
H171   H     0.14930   0.66120   0.29660   0.01267  Uiso   1.00
H172   H     0.18280   0.41230   0.32330   0.01267  Uiso   1.00
H173   H     0.89300   0.13680   0.72910   0.01267  Uiso   1.00
H174   H     0.22980   0.14770   0.55770   0.01267  Uiso   1.00
H175   H     0.51800   0.03160   0.55560   0.01267  Uiso   1.00
H176   H     0.89070   0.86450   0.68570   0.01267  Uiso   1.00
C181   C     0.33010   0.38990   0.37093   0.01267  Uiso   1.00
C182   C     0.74800   0.19090   0.75184   0.01267  Uiso   1.00
C183   C     0.18410   0.78340   0.41609   0.01267  Uiso   1.00
C184   C     0.46860   0.01020   0.55619   0.01267  Uiso   1.00
C185   C     0.17040   0.96030   0.46360   0.01267  Uiso   1.00
C186   C     0.74100   0.90610   0.66005   0.01267  Uiso   1.00
C187   C     0.26600   0.83790   0.45690   0.01267  Uiso   1.00
C188   C     0.55170   0.91560   0.62133   0.01267  Uiso   1.00
C189   C     0.31740   0.29670   0.41870   0.01267  Uiso   1.00
C190   C     0.87830   0.89910   0.70297   0.01267  Uiso   1.00
C191   C     0.30760   0.23940   0.44235   0.01267  Uiso   1.00
C192   C     0.18700   0.11530   0.55905   0.01267  Uiso   1.00
C193   C     0.35380   0.36150   0.34175   0.01267  Uiso   1.00
C194   C     0.06240   0.02150   0.56346   0.01267  Uiso   1.00
C195   C     0.45160   0.95490   0.57822   0.01267  Uiso   1.00
C196   C     0.17990   0.05600   0.53759   0.01267  Uiso   1.00
C197   C     0.83810   0.08370   0.64770   0.01267  Uiso   1.00
C198   C     0.17220   0.73630   0.39683   0.01267  Uiso   1.00
C199   C     0.15990   0.67970   0.37283   0.01267  Uiso   1.00
C200   C     0.59130   0.87220   0.67386   0.01267  Uiso   1.00
C201   C     0.20060   0.84140   0.43882   0.01267  Uiso   1.00
C202   C     0.28220   0.12070   0.48531   0.01267  Uiso   1.00
C203   C     0.87930   0.12330   0.70830   0.01267  Uiso   1.00
C204   C     0.14970   0.60470   0.38052   0.01267  Uiso   1.00
C205   C     0.93390   0.12160   0.68503   0.01267  Uiso   1.00
C206   C     0.32300   0.33950   0.39728   0.01267  Uiso   1.00
C207   C     0.50640   0.93240   0.60159   0.01267  Uiso   1.00
C208   C     0.11630   0.00920   0.54061   0.01267  Uiso   1.00
C209   C     0.24860   0.24360   0.46394   0.01267  Uiso   1.00
C210   C     0.13870   0.57210   0.32599   0.01267  Uiso   1.00
C211   C     0.91470   0.10110   0.65444   0.01267  Uiso   1.00
C212   C     0.13200   0.41670   0.31416   0.01267  Uiso   1.00
C213   C     0.28250   0.89460   0.47827   0.01267  Uiso   1.00
C214   C     0.78420   0.08680   0.67096   0.01267  Uiso   1.00
C215   C     0.60900   0.90060   0.64446   0.01267  Uiso   1.00
C216   C     0.13940   0.55090   0.35726   0.01267  Uiso   1.00
C217   C     0.23430   0.95700   0.48222   0.01267  Uiso   1.00
C218   C     0.97070   0.09730   0.63014   0.01267  Uiso   1.00
C219   C     0.68430   0.91520   0.63748   0.01267  Uiso   1.00
C220   C     0.36420   0.41000   0.31667   0.01267  Uiso   1.00
C221   C     0.35120   0.48660   0.31992   0.01267  Uiso   1.00
C222   C     0.80430   0.10530   0.70141   0.01267  Uiso   1.00
C223   C     0.15970   0.70050   0.34119   0.01267  Uiso   1.00
C224   C     0.34060   0.00390   0.53520   0.01267  Uiso   1.00
C225   C     0.35360   0.17560   0.44266   0.01267  Uiso   1.00
C226   C     0.32530   0.94730   0.55716   0.01267  Uiso   1.00
C227   C     0.23580   0.18440   0.48517   0.01267  Uiso   1.00
C228   C     0.43610   0.51050   0.26450   0.01267  Uiso   1.00
C229   C     0.13410   0.12830   0.58212   0.01267  Uiso   1.00
C230   C     0.31600   0.46700   0.37377   0.01267  Uiso   1.00
C231   C     0.14920   0.64660   0.31807   0.01267  Uiso   1.00
C232   C     0.41410   0.03460   0.53493   0.01267  Uiso   1.00
C233   C     0.01600   0.09190   0.60941   0.01267  Uiso   1.00
C234   C     0.72150   0.88290   0.68971   0.01267  Uiso   1.00
C235   C     0.64730   0.86320   0.69657   0.01267  Uiso   1.00
C236   C     0.34080   0.11740   0.46346   0.01267  Uiso   1.00
C237   C     0.07090   0.08130   0.58480   0.01267  Uiso   1.00
C238   C     0.32690   0.51490   0.34843   0.01267  Uiso   1.00
C239   C     0.15310   0.90370   0.44221   0.01267  Uiso   1.00
C240   C     0.37950   0.92240   0.57834   0.01267  Uiso   1.00
S13    S     0.73217   0.10451   0.73036   0.01267  Uiso   1.00
S14    S     0.78921   0.87181   0.72020   0.01267  Uiso   1.00
S15    S     0.12276   0.50571   0.29546   0.01267  Uiso   1.00
S16    S     0.36257   0.55189   0.28852   0.01267  Uiso   1.00
Si5    Si    0.75950   0.96451   0.99025   0.01267  Uiso   1.00
H177   H     0.19760   0.06840   0.88300   0.01267  Uiso   1.00
H178   H     0.29700   0.81170   0.73740   0.01267  Uiso   1.00
H179   H     0.92670   0.92740   0.98000   0.01267  Uiso   1.00
H180   H     0.86280   0.69120   0.16070   0.01267  Uiso   1.00
H181   H     0.04040   0.14130   0.82140   0.01267  Uiso   1.00
H182   H     0.77630   0.07490   0.94240   0.01267  Uiso   1.00
H183   H     0.82730   0.10880   0.00950   0.01267  Uiso   1.00
H184   H     0.94710   0.45590   0.25320   0.01267  Uiso   1.00
H185   H     0.64070   0.83060   0.90370   0.01267  Uiso   1.00
H186   H     0.59390   0.58770   0.16920   0.01267  Uiso   1.00
H187   H     0.01800   0.96840   0.94440   0.01267  Uiso   1.00
H188   H     0.62440   0.62380   0.20120   0.01267  Uiso   1.00
H189   H     0.98200   0.49640   0.22290   0.01267  Uiso   1.00
H190   H     0.60850   0.09250   0.07020   0.01267  Uiso   1.00
H191   H     0.79960   0.20370   0.04540   0.01267  Uiso   1.00
H192   H     0.64970   0.41030   0.09810   0.01267  Uiso   1.00
H193   H     0.88040   0.60960   0.20300   0.01267  Uiso   1.00
H194   H     0.63730   0.99750   0.03450   0.01267  Uiso   1.00
H195   H     0.48480   0.86540   0.81010   0.01267  Uiso   1.00
H196   H     0.81770   0.43240   0.14930   0.01267  Uiso   1.00
H197   H     0.20760   0.80230   0.73260   0.01267  Uiso   1.00
H198   H     0.86770   0.11660   0.90710   0.01267  Uiso   1.00
H199   H     0.79870   0.51300   0.10680   0.01267  Uiso   1.00
H200   H     0.71680   0.71300   0.03570   0.01267  Uiso   1.00
H201   H     0.61010   0.03210   0.97340   0.01267  Uiso   1.00
H202   H     0.69500   0.81230   0.00040   0.01267  Uiso   1.00
H203   H     0.68280   0.58770   0.17670   0.01267  Uiso   1.00
H204   H     0.89450   0.82790   0.07170   0.01267  Uiso   1.00
H205   H     0.13470   0.15630   0.78330   0.01267  Uiso   1.00
H206   H     0.23270   0.92390   0.83390   0.01267  Uiso   1.00
H207   H     0.37460   0.04910   0.80510   0.01267  Uiso   1.00
H208   H     0.29250   0.08410   0.84510   0.01267  Uiso   1.00
H209   H     0.24800   0.76610   0.76270   0.01267  Uiso   1.00
H210   H     0.72980   0.85230   0.94230   0.01267  Uiso   1.00
H211   H     0.91900   0.53880   0.24340   0.01267  Uiso   1.00
H212   H     0.39070   0.13550   0.81430   0.01267  Uiso   1.00
H213   H     0.87270   0.92590   0.03710   0.01267  Uiso   1.00
H214   H     0.32390   0.93020   0.87300   0.01267  Uiso   1.00
H215   H     0.41830   0.10330   0.78110   0.01267  Uiso   1.00
H216   H     0.64930   0.33880   0.20340   0.01267  Uiso   1.00
H217   H     0.39300   0.86320   0.77090   0.01267  Uiso   1.00
H218   H     0.51940   0.01070   0.93520   0.01267  Uiso   1.00
H219   H     0.63280   0.50080   0.13720   0.01267  Uiso   1.00
H220   H     0.66670   0.24790   0.16450   0.01267  Uiso   1.00
C241   C     0.37830   0.10090   0.79703   0.01267  Uiso   1.00
C242   C     0.57090   0.91870   0.91520   0.01267  Uiso   1.00
C243   C     0.82530   0.05270   0.94284   0.01267  Uiso   1.00
C244   C     0.63200   0.58330   0.18584   0.01267  Uiso   1.00
C245   C     0.05170   0.08440   0.87867   0.01267  Uiso   1.00
C246   C     0.41470   0.89890   0.84556   0.01267  Uiso   1.00
C247   C     0.68700   0.88470   0.94095   0.01267  Uiso   1.00
C248   C     0.14730   0.13680   0.80343   0.01267  Uiso   1.00
C249   C     0.28420   0.91320   0.82904   0.01267  Uiso   1.00
C250   C     0.65310   0.09630   0.05779   0.01267  Uiso   1.00
C251   C     0.24100   0.09390   0.83995   0.01267  Uiso   1.00
C252   C     0.78220   0.87930   0.01469   0.01267  Uiso   1.00
C253   C     0.95160   0.04510   0.92178   0.01267  Uiso   1.00
C254   C     0.63940   0.44910   0.14274   0.01267  Uiso   1.00
C255   C     0.30430   0.89470   0.79859   0.01267  Uiso   1.00
C256   C     0.84080   0.88260   0.03654   0.01267  Uiso   1.00
C257   C     0.93610   0.48950   0.23550   0.01267  Uiso   1.00
C258   C     0.24800   0.80910   0.74816   0.01267  Uiso   1.00
C259   C     0.18430   0.08480   0.86252   0.01267  Uiso   1.00
C260   C     0.73580   0.81560   0.01483   0.01267  Uiso   1.00
C261   C     0.76600   0.16210   0.04310   0.01267  Uiso   1.00
C262   C     0.74860   0.75640   0.03606   0.01267  Uiso   1.00
C263   C     0.96860   0.98980   0.94381   0.01267  Uiso   1.00
C264   C     0.65990   0.32030   0.12717   0.01267  Uiso   1.00
C265   C     0.22150   0.11710   0.81029   0.01267  Uiso   1.00
C266   C     0.83010   0.61010   0.12907   0.01267  Uiso   1.00
C267   C     0.67990   0.94400   0.96241   0.01267  Uiso   1.00
C268   C     0.85380   0.63850   0.15825   0.01267  Uiso   1.00
C269   C     0.64920   0.35340   0.18193   0.01267  Uiso   1.00
C270   C     0.63410   0.87170   0.91788   0.01267  Uiso   1.00
C271   C     0.70060   0.15860   0.06118   0.01267  Uiso   1.00
C272   C     0.67040   0.03970   0.03640   0.01267  Uiso   1.00
C273   C     0.33810   0.91630   0.85230   0.01267  Uiso   1.00
C274   C     0.81740   0.70330   0.08130   0.01267  Uiso   1.00
C275   C     0.78250   0.10540   0.02173   0.01267  Uiso   1.00
C276   C     0.68410   0.21660   0.08391   0.01267  Uiso   1.00
C277   C     0.63870   0.42790   0.17401   0.01267  Uiso   1.00
C278   C     0.85360   0.82440   0.05734   0.01267  Uiso   1.00
C279   C     0.67220   0.26370   0.10317   0.01267  Uiso   1.00
C280   C     0.84060   0.99610   0.96480   0.01267  Uiso   1.00
C281   C     0.65970   0.29950   0.15881   0.01267  Uiso   1.00
C282   C     0.85120   0.51340   0.18008   0.01267  Uiso   1.00
C283   C     0.56240   0.97850   0.93654   0.01267  Uiso   1.00
C284   C     0.37930   0.87670   0.79170   0.01267  Uiso   1.00
C285   C     0.80760   0.76060   0.05765   0.01267  Uiso   1.00
C286   C     0.51600   0.90810   0.89059   0.01267  Uiso   1.00
C287   C     0.73430   0.04300   0.01778   0.01267  Uiso   1.00
C288   C     0.47070   0.90270   0.86986   0.01267  Uiso   1.00
C289   C     0.81600   0.53300   0.12623   0.01267  Uiso   1.00
C290   C     0.09130   0.12780   0.82614   0.01267  Uiso   1.00
C291   C     0.91410   0.96540   0.96507   0.01267  Uiso   1.00
C292   C     0.64970   0.39530   0.11948   0.01267  Uiso   1.00
C293   C     0.00640   0.06760   0.89841   0.01267  Uiso   1.00
C294   C     0.82300   0.66050   0.10272   0.01267  Uiso   1.00
C295   C     0.61630   0.99080   0.95939   0.01267  Uiso   1.00
C296   C     0.87950   0.07760   0.92166   0.01267  Uiso   1.00
C297   C     0.86420   0.59000   0.18333   0.01267  Uiso   1.00
C298   C     0.10900   0.09940   0.85554   0.01267  Uiso   1.00
C299   C     0.82690   0.48510   0.15157   0.01267  Uiso   1.00
C300   C     0.43390   0.87840   0.81497   0.01267  Uiso   1.00
S17    S     0.86257   0.44811   0.21148   0.01267  Uiso   1.00
S18    S     0.28921   0.12819   0.77980   0.01267  Uiso   1.00
S19    S     0.23217   0.89549   0.76964   0.01267  Uiso   1.00
S20    S     0.62276   0.49429   0.20454   0.01267  Uiso   1.00
Si6    Si    0.74050   0.46451   0.00975   0.01267  Uiso   1.00
H221   H     0.78320   0.21300   0.96430   0.01267  Uiso   1.00
H222   H     0.62730   0.42590   0.96290   0.01267  Uiso   1.00
H223   H     0.67270   0.60880   0.99050   0.01267  Uiso   1.00
H224   H     0.20300   0.31170   0.26260   0.01267  Uiso   1.00
H225   H     0.70130   0.01300   0.89320   0.01267  Uiso   1.00
H226   H     0.29240   0.30230   0.26740   0.01267  Uiso   1.00
H227   H     0.81720   0.08770   0.82330   0.01267  Uiso   1.00
H228   H     0.08170   0.60330   0.21890   0.01267  Uiso   1.00
H229   H     0.25200   0.26610   0.23730   0.01267  Uiso   1.00
H230   H     0.85030   0.91030   0.90190   0.01267  Uiso   1.00
H231   H     0.63230   0.61660   0.09290   0.01267  Uiso   1.00
H232   H     0.01520   0.36540   0.18990   0.01267  Uiso   1.00
H233   H     0.85070   0.83880   0.79660   0.01267  Uiso   1.00
H234   H     0.10700   0.36320   0.22910   0.01267  Uiso   1.00
H235   H     0.30240   0.56840   0.11700   0.01267  Uiso   1.00
H236   H     0.63720   0.19120   0.83930   0.01267  Uiso   1.00
H237   H     0.48200   0.46840   0.05560   0.01267  Uiso   1.00
H238   H     0.86720   0.00080   0.86280   0.01267  Uiso   1.00
H239   H     0.10930   0.63550   0.18570   0.01267  Uiso   1.00
H240   H     0.85930   0.33060   0.09630   0.01267  Uiso   1.00
H241   H     0.17610   0.43020   0.12700   0.01267  Uiso   1.00
H242   H     0.12540   0.54910   0.19490   0.01267  Uiso   1.00
H243   H     0.88990   0.53210   0.02660   0.01267  Uiso   1.00
H244   H     0.45960   0.64130   0.17860   0.01267  Uiso   1.00
H245   H     0.70040   0.70370   0.95460   0.01267  Uiso   1.00
H246   H     0.58100   0.03880   0.75660   0.01267  Uiso   1.00
H247   H     0.68230   0.93240   0.85070   0.01267  Uiso   1.00
H248   H     0.61960   0.10960   0.79700   0.01267  Uiso   1.00
H249   H     0.51800   0.99640   0.77710   0.01267  Uiso   1.00
H250   H     0.87560   0.12380   0.79880   0.01267  Uiso   1.00
H251   H     0.80500   0.31230   0.99960   0.01267  Uiso   1.00
H252   H     0.90610   0.08770   0.83080   0.01267  Uiso   1.00
H253   H     0.77020   0.35230   0.05770   0.01267  Uiso   1.00
H254   H     0.98060   0.51070   0.06480   0.01267  Uiso   1.00
H255   H     0.20750   0.58410   0.15490   0.01267  Uiso   1.00
H256   H     0.89150   0.59250   0.92980   0.01267  Uiso   1.00
H257   H     0.57330   0.42740   0.02000   0.01267  Uiso   1.00
H258   H     0.83330   0.74790   0.83550   0.01267  Uiso   1.00
H259   H     0.86270   0.49750   0.96550   0.01267  Uiso   1.00
H260   H     0.55290   0.95590   0.74680   0.01267  Uiso   1.00
H261   H     0.72370   0.57490   0.05760   0.01267  Uiso   1.00
H262   H     0.26730   0.42390   0.16610   0.01267  Uiso   1.00
H263   H     0.60550   0.32790   0.92830   0.01267  Uiso   1.00
H264   H     0.36530   0.65630   0.21670   0.01267  Uiso   1.00
C301   C     0.73400   0.66210   0.95690   0.01267  Uiso   1.00
C302   C     0.81590   0.71660   0.91609   0.01267  Uiso   1.00
C303   C     0.31570   0.58480   0.13748   0.01267  Uiso   1.00
C304   C     0.65940   0.49610   0.03520   0.01267  Uiso   1.00
C305   C     0.06610   0.37840   0.18503   0.01267  Uiso   1.00
C306   C     0.86130   0.92790   0.82599   0.01267  Uiso   1.00
C307   C     0.82960   0.53970   0.96360   0.01267  Uiso   1.00
C308   C     0.71780   0.37930   0.98531   0.01267  Uiso   1.00
C309   C     0.67700   0.16050   0.89728   0.01267  Uiso   1.00
C310   C     0.69240   0.26060   0.94235   0.01267  Uiso   1.00
C311   C     0.16190   0.41630   0.14770   0.01267  Uiso   1.00
C312   C     0.67310   0.98510   0.84843   0.01267  Uiso   1.00
C313   C     0.66990   0.11010   0.87093   0.01267  Uiso   1.00
C314   C     0.86800   0.08330   0.81416   0.01267  Uiso   1.00
C315   C     0.39100   0.59940   0.14446   0.01267  Uiso   1.00
C316   C     0.92910   0.41870   0.08480   0.01267  Uiso   1.00
C317   C     0.62050   0.57760   0.07834   0.01267  Uiso   1.00
C318   C     0.86060   0.94910   0.85726   0.01267  Uiso   1.00
C319   C     0.68260   0.20330   0.91870   0.01267  Uiso   1.00
C320   C     0.64640   0.32440   0.94266   0.01267  Uiso   1.00
C321   C     0.27850   0.61710   0.18971   0.01267  Uiso   1.00
C322   C     0.79940   0.65860   0.93882   0.01267  Uiso   1.00
C323   C     0.19570   0.39470   0.20141   0.01267  Uiso   1.00
C324   C     0.84010   0.82030   0.87283   0.01267  Uiso   1.00
C325   C     0.53140   0.48980   0.05619   0.01267  Uiso   1.00
C326   C     0.56390   0.98950   0.76450   0.01267  Uiso   1.00
C327   C     0.67470   0.55270   0.05716   0.01267  Uiso   1.00
C328   C     0.54840   0.54510   0.07822   0.01267  Uiso   1.00
C329   C     0.93760   0.47850   0.06346   0.01267  Uiso   1.00
C330   C     0.98400   0.40810   0.10941   0.01267  Uiso   1.00
C331   C     0.84030   0.79950   0.84119   0.01267  Uiso   1.00
C332   C     0.68400   0.03300   0.87377   0.01267  Uiso   1.00
C333   C     0.85080   0.85340   0.81807   0.01267  Uiso   1.00
C334   C     0.76420   0.31560   0.98517   0.01267  Uiso   1.00
C335   C     0.08530   0.39890   0.15444   0.01267  Uiso   1.00
C336   C     0.02930   0.40270   0.13014   0.01267  Uiso   1.00
C337   C     0.85030   0.89530   0.88052   0.01267  Uiso   1.00
C338   C     0.35270   0.63680   0.19657   0.01267  Uiso   1.00
C339   C     0.44830   0.58440   0.12133   0.01267  Uiso   1.00
C340   C     0.75140   0.25640   0.96394   0.01267  Uiso   1.00
C341   C     0.63580   0.09000   0.81667   0.01267  Uiso   1.00
C342   C     0.64880   0.01340   0.81992   0.01267  Uiso   1.00
C343   C     0.81300   0.38470   0.05905   0.01267  Uiso   1.00
C344   C     0.49360   0.56760   0.10159   0.01267  Uiso   1.00
C345   C     0.82010   0.44400   0.03759   0.01267  Uiso   1.00
C346   C     0.64620   0.13850   0.84175   0.01267  Uiso   1.00
C347   C     0.21580   0.41320   0.17096   0.01267  Uiso   1.00
C348   C     0.82780   0.76370   0.89683   0.01267  Uiso   1.00
C349   C     0.86590   0.37170   0.08212   0.01267  Uiso   1.00
C350   C     0.71750   0.60540   0.97827   0.01267  Uiso   1.00
C351   C     0.76570   0.54300   0.98222   0.01267  Uiso   1.00
C352   C     0.88370   0.49080   0.04061   0.01267  Uiso   1.00
C353   C     0.84690   0.59630   0.94221   0.01267  Uiso   1.00
C354   C     0.25900   0.59390   0.16005   0.01267  Uiso   1.00
C355   C     0.12070   0.37670   0.20830   0.01267  Uiso   1.00
C356   C     0.65920   0.38260   0.96346   0.01267  Uiso   1.00
C357   C     0.25200   0.30910   0.25184   0.01267  Uiso   1.00
C358   C     0.58590   0.46540   0.03493   0.01267  Uiso   1.00
C359   C     0.12170   0.60090   0.20297   0.01267  Uiso   1.00
C360   C     0.40870   0.62780   0.17386   0.01267  Uiso   1.00
S21    S     0.87724   0.99429   0.79546   0.01267  Uiso   1.00
S22    S     0.63743   0.94811   0.78852   0.01267  Uiso   1.00
S23    S     0.26783   0.39549   0.23036   0.01267  Uiso   1.00
S24    S     0.21079   0.62819   0.22020   0.01267  Uiso   1.00
Si7    Si    0.24050   0.53549   0.49025   0.01267  Uiso   1.00
H265   H     0.48060   0.48930   0.43520   0.01267  Uiso   1.00
H266   H     0.58170   0.39670   0.28110   0.01267  Uiso   1.00
H267   H     0.35930   0.66940   0.40370   0.01267  Uiso   1.00
H268   H     0.31720   0.91230   0.67670   0.01267  Uiso   1.00
H269   H     0.76730   0.57610   0.33390   0.01267  Uiso   1.00
H270   H     0.62540   0.45090   0.30510   0.01267  Uiso   1.00
H271   H     0.38990   0.46790   0.47340   0.01267  Uiso   1.00
H272   H     0.39150   0.40750   0.57020   0.01267  Uiso   1.00
H273   H     0.60930   0.36450   0.31430   0.01267  Uiso   1.00
H274   H     0.60700   0.63680   0.27090   0.01267  Uiso   1.00
H275   H     0.10550   0.67210   0.57170   0.01267  Uiso   1.00
H276   H     0.40610   0.91230   0.66920   0.01267  Uiso   1.00
H277   H     0.18230   0.06760   0.64930   0.01267  Uiso   1.00
H278   H     0.37560   0.87620   0.70120   0.01267  Uiso   1.00
H279   H     0.36270   0.50250   0.53450   0.01267  Uiso   1.00
H280   H     0.79240   0.69770   0.23260   0.01267  Uiso   1.00
H281   H     0.67610   0.56980   0.37300   0.01267  Uiso   1.00
H282   H     0.98200   0.53160   0.44440   0.01267  Uiso   1.00
H283   H     0.33330   0.25210   0.66450   0.01267  Uiso   1.00
H284   H     0.13230   0.38340   0.40710   0.01267  Uiso   1.00
H285   H     0.20130   0.98700   0.60680   0.01267  Uiso   1.00
H286   H     0.01800   0.00360   0.72290   0.01267  Uiso   1.00
H287   H     0.05290   0.04410   0.75320   0.01267  Uiso   1.00
H288   H     0.11960   0.89040   0.70300   0.01267  Uiso   1.00
H289   H     0.86530   0.34370   0.28330   0.01267  Uiso   1.00
H290   H     0.30500   0.68770   0.50040   0.01267  Uiso   1.00
H291   H     0.17270   0.39120   0.50950   0.01267  Uiso   1.00
H292   H     0.75200   0.73390   0.26270   0.01267  Uiso   1.00
H293   H     0.80240   0.43160   0.38300   0.01267  Uiso   1.00
H294   H     0.28320   0.78700   0.53570   0.01267  Uiso   1.00
H295   H     0.35030   0.08970   0.59810   0.01267  Uiso   1.00
H296   H     0.08100   0.96120   0.74340   0.01267  Uiso   1.00
H297   H     0.07330   0.57260   0.48000   0.01267  Uiso   1.00
H298   H     0.22370   0.42510   0.44240   0.01267  Uiso   1.00
H299   H     0.36720   0.99920   0.63720   0.01267  Uiso   1.00
H300   H     0.95960   0.35870   0.32140   0.01267  Uiso   1.00
H301   H     0.12730   0.57410   0.53710   0.01267  Uiso   1.00
H302   H     0.13720   0.80880   0.66070   0.01267  Uiso   1.00
H303   H     0.20040   0.29630   0.54540   0.01267  Uiso   1.00
H304   H     0.27020   0.64770   0.44230   0.01267  Uiso   1.00
H305   H     0.70300   0.68830   0.23740   0.01267  Uiso   1.00
H306   H     0.70750   0.41590   0.34510   0.01267  Uiso   1.00
H307   H     0.51520   0.63460   0.31010   0.01267  Uiso   1.00
H308   H     0.35070   0.16120   0.70340   0.01267  Uiso   1.00
C361   C     0.34030   0.20050   0.65881   0.01267  Uiso   1.00
C362   C     0.08590   0.53460   0.46507   0.01267  Uiso   1.00
C363   C     0.34690   0.40370   0.55779   0.01267  Uiso   1.00
C364   C     0.26570   0.45700   0.51778   0.01267  Uiso   1.00
C365   C     0.48400   0.59190   0.39059   0.01267  Uiso   1.00
C366   C     0.52930   0.59730   0.36986   0.01267  Uiso   1.00
C367   C     0.14640   0.67560   0.55734   0.01267  Uiso   1.00
C368   C     0.36590   0.62830   0.41788   0.01267  Uiso   1.00
C369   C     0.32010   0.55600   0.46241   0.01267  Uiso   1.00
C370   C     0.04840   0.45490   0.42178   0.01267  Uiso   1.00
C371   C     0.62070   0.62330   0.29170   0.01267  Uiso   1.00
C372   C     0.58530   0.60110   0.34556   0.01267  Uiso   1.00
C373   C     0.34010   0.17970   0.62717   0.01267  Uiso   1.00
C374   C     0.32780   0.23630   0.60317   0.01267  Uiso   1.00
C375   C     0.43760   0.52150   0.43654   0.01267  Uiso   1.00
C376   C     0.15920   0.61740   0.53654   0.01267  Uiso   1.00
C377   C     0.36060   0.05090   0.64274   0.01267  Uiso   1.00
C378   C     0.13580   0.91000   0.68333   0.01267  Uiso   1.00
C379   C     0.66190   0.58370   0.35230   0.01267  Uiso   1.00
C380   C     0.85270   0.36320   0.30343   0.01267  Uiso   1.00
C381   C     0.32960   0.46030   0.53640   0.01267  Uiso   1.00
C382   C     0.62170   0.39910   0.29703   0.01267  Uiso   1.00
C383   C     0.77850   0.38290   0.31029   0.01267  Uiso   1.00
C384   C     0.14620   0.86150   0.65825   0.01267  Uiso   1.00
C385   C     0.03140   0.51020   0.44381   0.01267  Uiso   1.00
C386   C     0.26420   0.68440   0.51483   0.01267  Uiso   1.00
C387   C     0.21780   0.62070   0.51469   0.01267  Uiso   1.00
C388   C     0.99360   0.43240   0.39841   0.01267  Uiso   1.00
C389   C     0.17470   0.44730   0.44284   0.01267  Uiso   1.00
C390   C     0.36800   0.91670   0.68584   0.01267  Uiso   1.00
C391   C     0.17310   0.01490   0.65157   0.01267  Uiso   1.00
C392   C     0.17700   0.83950   0.60272   0.01267  Uiso   1.00
C393   C     0.19240   0.73940   0.55765   0.01267  Uiso   1.00
C394   C     0.06390   0.01050   0.73550   0.01267  Uiso   1.00
C395   C     0.56610   0.62160   0.31497   0.01267  Uiso   1.00
C396   C     0.14880   0.98660   0.68008   0.01267  Uiso   1.00
C397   C     0.18260   0.79670   0.58130   0.01267  Uiso   1.00
C398   C     0.75200   0.69090   0.24816   0.01267  Uiso   1.00
C399   C     0.69570   0.60530   0.29859   0.01267  Uiso   1.00
C400   C     0.21750   0.39460   0.52173   0.01267  Uiso   1.00
C401   C     0.71580   0.58680   0.32904   0.01267  Uiso   1.00
C402   C     0.89100   0.40060   0.35554   0.01267  Uiso   1.00
C403   C     0.42910   0.58130   0.41520   0.01267  Uiso   1.00
C404   C     0.81570   0.41520   0.36252   0.01267  Uiso   1.00
C405   C     0.18400   0.96700   0.62623   0.01267  Uiso   1.00
C406   C     0.29940   0.34140   0.56118   0.01267  Uiso   1.00
C407   C     0.35080   0.14660   0.68193   0.01267  Uiso   1.00
C408   C     0.31300   0.61530   0.44095   0.01267  Uiso   1.00
C409   C     0.25140   0.74360   0.53606   0.01267  Uiso   1.00
C410   C     0.90870   0.37220   0.32614   0.01267  Uiso   1.00
C411   C     0.23400   0.33790   0.54310   0.01267  Uiso   1.00
C412   C     0.16990   0.88990   0.62907   0.01267  Uiso   1.00
C413   C     0.75900   0.40610   0.33995   0.01267  Uiso   1.00
C414   C     0.12050   0.42240   0.42166   0.01267  Uiso   1.00
C415   C     0.31590   0.28340   0.58391   0.01267  Uiso   1.00
C416   C     0.35030   0.10470   0.61948   0.01267  Uiso   1.00
C417   C     0.38370   0.50920   0.45939   0.01267  Uiso   1.00
C418   C     0.94830   0.41560   0.37867   0.01267  Uiso   1.00
C419   C     0.36130   0.07210   0.67401   0.01267  Uiso   1.00
C420   C     0.15940   0.50390   0.46480   0.01267  Uiso   1.00
S25    S     0.71079   0.37181   0.27980   0.01267  Uiso   1.00
S26    S     0.76783   0.60451   0.26964   0.01267  Uiso   1.00
S27    S     0.37724   0.00571   0.70454   0.01267  Uiso   1.00
S28    S     0.13743   0.05189   0.71148   0.01267  Uiso   1.00
Si8    Si    0.25950   0.53549   0.99025   0.01267  Uiso   1.00
H309   H     0.73270   0.57610   0.83390   0.01267  Uiso   1.00
H310   H     0.29960   0.29630   0.04540   0.01267  Uiso   1.00
H311   H     0.11010   0.46790   0.97340   0.01267  Uiso   1.00
H312   H     0.79250   0.41590   0.84510   0.01267  Uiso   1.00
H313   H     0.16670   0.25210   0.16450   0.01267  Uiso   1.00
H314   H     0.41900   0.96120   0.24340   0.01267  Uiso   1.00
H315   H     0.51800   0.53160   0.94440   0.01267  Uiso   1.00
H316   H     0.31770   0.06760   0.14930   0.01267  Uiso   1.00
H317   H     0.14970   0.08970   0.09810   0.01267  Uiso   1.00
H318   H     0.14070   0.66940   0.90370   0.01267  Uiso   1.00
H319   H     0.39450   0.67210   0.07170   0.01267  Uiso   1.00
H320   H     0.48200   0.00360   0.22290   0.01267  Uiso   1.00
H321   H     0.13280   0.99920   0.13720   0.01267  Uiso   1.00
H322   H     0.18280   0.91230   0.17670   0.01267  Uiso   1.00
H323   H     0.87460   0.45090   0.80510   0.01267  Uiso   1.00
H324   H     0.98480   0.63460   0.81010   0.01267  Uiso   1.00
H325   H     0.54040   0.35870   0.82140   0.01267  Uiso   1.00
H326   H     0.69760   0.43160   0.88300   0.01267  Uiso   1.00
H327   H     0.37270   0.57410   0.03710   0.01267  Uiso   1.00
H328   H     0.09390   0.91230   0.16920   0.01267  Uiso   1.00
H329   H     0.42670   0.57260   0.98000   0.01267  Uiso   1.00
H330   H     0.13730   0.50250   0.03450   0.01267  Uiso   1.00
H331   H     0.29870   0.98700   0.10680   0.01267  Uiso   1.00
H332   H     0.12440   0.87620   0.20120   0.01267  Uiso   1.00
H333   H     0.79700   0.68830   0.73740   0.01267  Uiso   1.00
H334   H     0.82390   0.56980   0.87300   0.01267  Uiso   1.00
H335   H     0.21680   0.78700   0.03570   0.01267  Uiso   1.00
H336   H     0.70760   0.69770   0.73260   0.01267  Uiso   1.00
H337   H     0.22980   0.64770   0.94230   0.01267  Uiso   1.00
H338   H     0.36280   0.80880   0.16070   0.01267  Uiso   1.00
H339   H     0.32730   0.39120   0.00950   0.01267  Uiso   1.00
H340   H     0.74800   0.73390   0.76270   0.01267  Uiso   1.00
H341   H     0.44710   0.04410   0.25320   0.01267  Uiso   1.00
H342   H     0.38040   0.89040   0.20300   0.01267  Uiso   1.00
H343   H     0.27630   0.42510   0.94240   0.01267  Uiso   1.00
H344   H     0.89300   0.63680   0.77090   0.01267  Uiso   1.00
H345   H     0.19500   0.68770   0.00040   0.01267  Uiso   1.00
H346   H     0.01940   0.48930   0.93520   0.01267  Uiso   1.00
H347   H     0.91830   0.39670   0.78110   0.01267  Uiso   1.00
H348   H     0.14930   0.16120   0.20340   0.01267  Uiso   1.00
H349   H     0.10850   0.40750   0.07020   0.01267  Uiso   1.00
H350   H     0.36770   0.38340   0.90710   0.01267  Uiso   1.00
H351   H     0.63470   0.34370   0.78330   0.01267  Uiso   1.00
H352   H     0.89070   0.36450   0.81430   0.01267  Uiso   1.00
C421   C     0.87830   0.39910   0.79703   0.01267  Uiso   1.00
C422   C     0.35120   0.98660   0.18008   0.01267  Uiso   1.00
C423   C     0.97070   0.59730   0.86986   0.01267  Uiso   1.00
C424   C     0.78420   0.58680   0.82904   0.01267  Uiso   1.00
C425   C     0.17990   0.55600   0.96241   0.01267  Uiso   1.00
C426   C     0.31600   0.96700   0.12623   0.01267  Uiso   1.00
C427   C     0.74100   0.40610   0.83995   0.01267  Uiso   1.00
C428   C     0.32300   0.83950   0.10272   0.01267  Uiso   1.00
C429   C     0.15310   0.40370   0.05779   0.01267  Uiso   1.00
C430   C     0.15970   0.20050   0.15881   0.01267  Uiso   1.00
C431   C     0.72150   0.38290   0.81029   0.01267  Uiso   1.00
C432   C     0.32530   0.44730   0.94284   0.01267  Uiso   1.00
C433   C     0.41410   0.53460   0.96507   0.01267  Uiso   1.00
C434   C     0.68430   0.41520   0.86252   0.01267  Uiso   1.00
C435   C     0.59130   0.37220   0.82614   0.01267  Uiso   1.00
C436   C     0.60900   0.40060   0.85554   0.01267  Uiso   1.00
C437   C     0.30760   0.73940   0.05765   0.01267  Uiso   1.00
C438   C     0.36420   0.91000   0.18333   0.01267  Uiso   1.00
C439   C     0.13870   0.07210   0.17401   0.01267  Uiso   1.00
C440   C     0.18410   0.28340   0.08391   0.01267  Uiso   1.00
C441   C     0.32690   0.01490   0.15157   0.01267  Uiso   1.00
C442   C     0.23430   0.45700   0.01778   0.01267  Uiso   1.00
C443   C     0.80430   0.60530   0.79859   0.01267  Uiso   1.00
C444   C     0.43610   0.01050   0.23550   0.01267  Uiso   1.00
C445   C     0.46860   0.51020   0.94381   0.01267  Uiso   1.00
C446   C     0.45160   0.45490   0.92178   0.01267  Uiso   1.00
C447   C     0.64730   0.36320   0.80343   0.01267  Uiso   1.00
C448   C     0.14920   0.14660   0.18193   0.01267  Uiso   1.00
C449   C     0.26600   0.33790   0.04310   0.01267  Uiso   1.00
C450   C     0.14970   0.10470   0.11948   0.01267  Uiso   1.00
C451   C     0.37950   0.42240   0.92166   0.01267  Uiso   1.00
C452   C     0.06240   0.52150   0.93654   0.01267  Uiso   1.00
C453   C     0.28220   0.62070   0.01469   0.01267  Uiso   1.00
C454   C     0.23580   0.68440   0.01483   0.01267  Uiso   1.00
C455   C     0.11630   0.50920   0.95939   0.01267  Uiso   1.00
C456   C     0.87930   0.62330   0.79170   0.01267  Uiso   1.00
C457   C     0.13200   0.91670   0.18584   0.01267  Uiso   1.00
C458   C     0.34060   0.50390   0.96480   0.01267  Uiso   1.00
C459   C     0.93390   0.62160   0.81497   0.01267  Uiso   1.00
C460   C     0.83810   0.58370   0.85230   0.01267  Uiso   1.00
C461   C     0.50640   0.43240   0.89841   0.01267  Uiso   1.00
C462   C     0.34080   0.61740   0.03654   0.01267  Uiso   1.00
C463   C     0.35380   0.86150   0.15825   0.01267  Uiso   1.00
C464   C     0.24860   0.74360   0.03606   0.01267  Uiso   1.00
C465   C     0.55170   0.41560   0.87867   0.01267  Uiso   1.00
C466   C     0.01600   0.59190   0.89059   0.01267  Uiso   1.00
C467   C     0.28250   0.39460   0.02173   0.01267  Uiso   1.00
C468   C     0.07090   0.58130   0.91520   0.01267  Uiso   1.00
C469   C     0.18700   0.61530   0.94095   0.01267  Uiso   1.00
C470   C     0.17220   0.23630   0.10317   0.01267  Uiso   1.00
C471   C     0.31740   0.79670   0.08130   0.01267  Uiso   1.00
C472   C     0.17040   0.46030   0.03640   0.01267  Uiso   1.00
C473   C     0.15990   0.17970   0.12717   0.01267  Uiso   1.00
C474   C     0.13940   0.05090   0.14274   0.01267  Uiso   1.00
C475   C     0.13410   0.62830   0.91788   0.01267  Uiso   1.00
C476   C     0.91470   0.60110   0.84556   0.01267  Uiso   1.00
C477   C     0.20060   0.34140   0.06118   0.01267  Uiso   1.00
C478   C     0.35360   0.67560   0.05734   0.01267  Uiso   1.00
C479   C     0.74800   0.69090   0.74816   0.01267  Uiso   1.00
C480   C     0.33010   0.88990   0.12907   0.01267  Uiso   1.00
S29    S     0.78921   0.37181   0.77980   0.01267  Uiso   1.00
S30    S     0.12276   0.00571   0.20454   0.01267  Uiso   1.00
S31    S     0.73217   0.60451   0.76964   0.01267  Uiso   1.00
S32    S     0.36257   0.05189   0.21148   0.01267  Uiso   1.00
