data_image0
_cell_length_a       27.0553
_cell_length_b       27.0553
_cell_length_c       63.159
_cell_angle_alpha    90
_cell_angle_beta     90
_cell_angle_gamma    120

_symmetry_space_group_name_H-M    "P 1"
_symmetry_int_tables_number       1

loop_
  _symmetry_equiv_pos_as_xyz
  'x, y, z'

loop_
  _atom_site_label
  _atom_site_occupancy
  _atom_site_fract_x
  _atom_site_fract_y
  _atom_site_fract_z
  _atom_site_thermal_displace_type
  _atom_site_B_iso_or_equiv
  _atom_site_type_symbol
  Cu1      1.0000 0.85702  0.08898  0.15174  Biso   1.000  Cu
  Cu2      1.0000 0.95630  0.42344  0.02299  Biso   1.000  Cu
  Cu3      1.0000 0.89884  0.49097  0.99414  Biso   1.000  Cu
  S1       1.0000 0.80103  0.15666  0.07562  Biso   1.000  S
  S2       1.0000 0.84480  0.28038  0.02911  Biso   1.000  S
  S3       1.0000 0.05290  0.53107  0.92619  Biso   1.000  S
  S4       1.0000 0.12651  0.41712  0.97147  Biso   1.000  S
  S5       1.0000 0.01790  0.27151  0.20423  Biso   1.000  S
  S6       1.0000 0.93421  0.38230  0.17185  Biso   1.000  S
  N1       1.0000 0.85510  0.10020  0.08863  Biso   1.000  N
  N2       1.0000 0.86590  0.07980  0.10603  Biso   1.000  N
  N3       1.0000 0.84480  0.09480  0.12151  Biso   1.000  N
  N4       1.0000 0.78910  0.33030  0.00988  Biso   1.000  N
  N5       1.0000 0.80030  0.38030  0.00159  Biso   1.000  N
  N6       1.0000 0.85390  0.41490  0.00591  Biso   1.000  N
  N7       1.0000 0.87670  0.38770  0.01601  Biso   1.000  N
  N8       1.0000 0.01820  0.20820  0.16968  Biso   1.000  N
  N9       1.0000 0.98090  0.16860  0.15678  Biso   1.000  N
  N10      1.0000 0.93080  0.15940  0.16194  Biso   1.000  N
  N11      1.0000 0.80460  0.05790  0.17593  Biso   1.000  N
  N12      1.0000 0.93960  0.46240  0.93427  Biso   1.000  N
  N13      1.0000 0.90150  0.45090  0.94988  Biso   1.000  N
  N14      1.0000 0.93050  0.48080  0.96550  Biso   1.000  N
  N15      1.0000 0.01260  0.48700  0.03916  Biso   1.000  N
  N16      1.0000 0.02300  0.34260  0.98911  Biso   1.000  N
  N17      1.0000 0.98300  0.34310  0.00127  Biso   1.000  N
  N18      1.0000 0.00120  0.39570  0.00614  Biso   1.000  N
  N19      1.0000 0.94770  0.57020  0.00268  Biso   1.000  N
  C1       1.0000 0.82560  0.12690  0.09360  Biso   1.000  C
  C2       1.0000 0.86440  0.22480  0.07120  Biso   1.000  C
  H1       1.0000 0.89360  0.23080  0.08190  Biso   1.000  H
  H2       1.0000 0.88020  0.22500  0.05700  Biso   1.000  H
  C3       1.0000 0.85160  0.27150  0.07240  Biso   1.000  C
  H3       1.0000 0.83320  0.26870  0.08630  Biso   1.000  H
  H4       1.0000 0.88820  0.30800  0.07230  Biso   1.000  H
  C4       1.0000 0.81550  0.27410  0.05610  Biso   1.000  C
  H5       1.0000 0.81040  0.30740  0.05880  Biso   1.000  H
  H6       1.0000 0.77740  0.23930  0.05680  Biso   1.000  H
  C5       1.0000 0.83600  0.33460  0.01822  Biso   1.000  C
  C6       1.0000 0.87380  0.09280  0.06810  Biso   1.000  C
  H7       1.0000 0.89440  0.07180  0.06960  Biso   1.000  H
  H8       1.0000 0.89910  0.13030  0.06180  Biso   1.000  H
  H9       1.0000 0.84050  0.07140  0.05890  Biso   1.000  H
  C7       1.0000 0.73130  0.28030  0.00780  Biso   1.000  C
  H10      1.0000 0.73000  0.24740  0.01490  Biso   1.000  H
  H11      1.0000 0.72210  0.27150  0.99280  Biso   1.000  H
  H12      1.0000 0.70350  0.28870  0.01440  Biso   1.000  H
  C8       1.0000 0.98950  0.22460  0.18350  Biso   1.000  C
  C9       1.0000 0.05220  0.33980  0.19370  Biso   1.000  C
  H13      1.0000 0.06290  0.36690  0.20560  Biso   1.000  H
  H14      1.0000 0.08830  0.34610  0.18720  Biso   1.000  H
  C10      1.0000 0.99820  0.31720  0.19850  Biso   1.000  C
  H15      1.0000 0.95610  0.29580  0.19710  Biso   1.000  H
  H16      1.0000 0.00750  0.34300  0.21080  Biso   1.000  H
  C11      1.0000 0.02310  0.35630  0.17780  Biso   1.000  C
  H17      1.0000 0.00710  0.32720  0.16640  Biso   1.000  H
  H18      1.0000 0.05080  0.39330  0.17130  Biso   1.000  H
  C12      1.0000 0.97320  0.36160  0.18890  Biso   1.000  C
  H19      1.0000 0.94620  0.32430  0.19530  Biso   1.000  H
  H20      1.0000 0.98980  0.38990  0.20050  Biso   1.000  H
  C13      1.0000 0.66010  0.93470  0.15730  Biso   1.000  C
  H21      1.0000 0.64700  0.91170  0.14410  Biso   1.000  H
  H22      1.0000 0.63730  0.90900  0.16890  Biso   1.000  H
  C14      1.0000 0.07680  0.22340  0.16970  Biso   1.000  C
  H23      1.0000 0.08420  0.20470  0.15780  Biso   1.000  H
  H24      1.0000 0.08570  0.21100  0.18310  Biso   1.000  H
  H25      1.0000 0.10070  0.26490  0.16840  Biso   1.000  H
  C15      1.0000 0.99000  0.49820  0.94120  Biso   1.000  C
  C16      1.0000 0.06330  0.47130  0.92240  Biso   1.000  C
  H26      1.0000 0.10030  0.48670  0.91500  Biso   1.000  H
  H27      1.0000 0.03370  0.44640  0.91210  Biso   1.000  H
  C17      1.0000 0.06370  0.43030  0.93970  Biso   1.000  C
  H28      1.0000 0.03220  0.42130  0.94970  Biso   1.000  H
  H29      1.0000 0.05520  0.39420  0.93270  Biso   1.000  H
  C18      1.0000 0.08070  0.47160  0.94580  Biso   1.000  C
  H30      1.0000 0.10190  0.51190  0.95060  Biso   1.000  H
  H31      1.0000 0.04520  0.45230  0.95430  Biso   1.000  H
  C19      1.0000 0.11050  0.44880  0.95040  Biso   1.000  C
  H32      1.0000 0.11890  0.48650  0.95590  Biso   1.000  H
  H33      1.0000 0.14030  0.45690  0.93970  Biso   1.000  H
  C20      1.0000 0.06550  0.39610  0.98628  Biso   1.000  C
  C21      1.0000 0.91950  0.43410  0.91410  Biso   1.000  C
  H34      1.0000 0.95190  0.44650  0.90440  Biso   1.000  H
  H35      1.0000 0.90080  0.39270  0.91610  Biso   1.000  H
  H36      1.0000 0.89210  0.44390  0.90810  Biso   1.000  H
  C22      1.0000 0.01540  0.28860  0.98080  Biso   1.000  C
  H37      1.0000 0.04840  0.29610  0.97210  Biso   1.000  H
  H38      1.0000 0.98060  0.27000  0.97220  Biso   1.000  H
  H39      1.0000 0.01190  0.26360  0.99270  Biso   1.000  H
  Cu4      1.0000 0.52369  0.42231  0.48507  Biso   1.000  Cu
  Cu5      1.0000 0.62297  0.75677  0.35632  Biso   1.000  Cu
  Cu6      1.0000 0.56551  0.82430  0.32747  Biso   1.000  Cu
  S7       1.0000 0.46770  0.48999  0.40895  Biso   1.000  S
  S8       1.0000 0.51147  0.61371  0.36244  Biso   1.000  S
  S9       1.0000 0.71957  0.86440  0.25952  Biso   1.000  S
  S10      1.0000 0.79318  0.75045  0.30480  Biso   1.000  S
  S11      1.0000 0.68457  0.60484  0.53756  Biso   1.000  S
  S12      1.0000 0.60088  0.71563  0.50518  Biso   1.000  S
  N20      1.0000 0.52177  0.43353  0.42196  Biso   1.000  N
  N21      1.0000 0.53257  0.41313  0.43936  Biso   1.000  N
  N22      1.0000 0.51147  0.42813  0.45484  Biso   1.000  N
  N23      1.0000 0.45577  0.66363  0.34321  Biso   1.000  N
  N24      1.0000 0.46697  0.71363  0.33492  Biso   1.000  N
  N25      1.0000 0.52057  0.74823  0.33924  Biso   1.000  N
  N26      1.0000 0.54337  0.72103  0.34934  Biso   1.000  N
  N27      1.0000 0.68487  0.54153  0.50301  Biso   1.000  N
  N28      1.0000 0.64757  0.50193  0.49011  Biso   1.000  N
  N29      1.0000 0.59747  0.49273  0.49527  Biso   1.000  N
  N30      1.0000 0.47127  0.39123  0.50926  Biso   1.000  N
  N31      1.0000 0.60627  0.79573  0.26760  Biso   1.000  N
  N32      1.0000 0.56817  0.78423  0.28321  Biso   1.000  N
  N33      1.0000 0.59717  0.81413  0.29883  Biso   1.000  N
  N34      1.0000 0.67927  0.82033  0.37249  Biso   1.000  N
  N35      1.0000 0.68967  0.67593  0.32244  Biso   1.000  N
  N36      1.0000 0.64967  0.67643  0.33460  Biso   1.000  N
  N37      1.0000 0.66787  0.72903  0.33947  Biso   1.000  N
  N38      1.0000 0.61437  0.90353  0.33601  Biso   1.000  N
  C23      1.0000 0.49227  0.46023  0.42693  Biso   1.000  C
  C24      1.0000 0.53107  0.55813  0.40453  Biso   1.000  C
  H40      1.0000 0.56027  0.56413  0.41523  Biso   1.000  H
  H41      1.0000 0.54687  0.55833  0.39033  Biso   1.000  H
  C25      1.0000 0.51827  0.60483  0.40573  Biso   1.000  C
  H42      1.0000 0.49987  0.60203  0.41963  Biso   1.000  H
  H43      1.0000 0.55487  0.64133  0.40563  Biso   1.000  H
  C26      1.0000 0.48217  0.60743  0.38943  Biso   1.000  C
  H44      1.0000 0.47707  0.64073  0.39213  Biso   1.000  H
  H45      1.0000 0.44407  0.57263  0.39013  Biso   1.000  H
  C27      1.0000 0.50267  0.66793  0.35155  Biso   1.000  C
  C28      1.0000 0.54047  0.42613  0.40143  Biso   1.000  C
  H46      1.0000 0.56107  0.40513  0.40293  Biso   1.000  H
  H47      1.0000 0.56577  0.46363  0.39513  Biso   1.000  H
  H48      1.0000 0.50717  0.40473  0.39223  Biso   1.000  H
  C29      1.0000 0.39797  0.61363  0.34113  Biso   1.000  C
  H49      1.0000 0.39667  0.58073  0.34823  Biso   1.000  H
  H50      1.0000 0.38877  0.60483  0.32613  Biso   1.000  H
  H51      1.0000 0.37017  0.62203  0.34773  Biso   1.000  H
  C30      1.0000 0.65617  0.55793  0.51683  Biso   1.000  C
  C31      1.0000 0.71887  0.67313  0.52703  Biso   1.000  C
  H52      1.0000 0.72957  0.70023  0.53893  Biso   1.000  H
  H53      1.0000 0.75497  0.67943  0.52053  Biso   1.000  H
  C32      1.0000 0.66487  0.65053  0.53183  Biso   1.000  C
  H54      1.0000 0.62277  0.62913  0.53043  Biso   1.000  H
  H55      1.0000 0.67417  0.67633  0.54413  Biso   1.000  H
  C33      1.0000 0.68977  0.68963  0.51113  Biso   1.000  C
  H56      1.0000 0.67377  0.66053  0.49973  Biso   1.000  H
  H57      1.0000 0.71747  0.72663  0.50463  Biso   1.000  H
  C34      1.0000 0.63987  0.69493  0.52223  Biso   1.000  C
  H58      1.0000 0.61287  0.65763  0.52863  Biso   1.000  H
  H59      1.0000 0.65647  0.72323  0.53383  Biso   1.000  H
  C35      1.0000 0.32677  0.26803  0.49063  Biso   1.000  C
  H60      1.0000 0.31367  0.24503  0.47743  Biso   1.000  H
  H61      1.0000 0.30397  0.24233  0.50223  Biso   1.000  H
  C36      1.0000 0.74347  0.55673  0.50303  Biso   1.000  C
  H62      1.0000 0.75087  0.53803  0.49113  Biso   1.000  H
  H63      1.0000 0.75237  0.54433  0.51643  Biso   1.000  H
  H64      1.0000 0.76737  0.59823  0.50173  Biso   1.000  H
  C37      1.0000 0.65667  0.83153  0.27453  Biso   1.000  C
  C38      1.0000 0.72997  0.80463  0.25573  Biso   1.000  C
  H65      1.0000 0.76697  0.82003  0.24833  Biso   1.000  H
  H66      1.0000 0.70037  0.77973  0.24543  Biso   1.000  H
  C39      1.0000 0.73037  0.76363  0.27303  Biso   1.000  C
  H67      1.0000 0.69887  0.75463  0.28303  Biso   1.000  H
  H68      1.0000 0.72187  0.72753  0.26603  Biso   1.000  H
  C40      1.0000 0.74737  0.80493  0.27913  Biso   1.000  C
  H69      1.0000 0.76857  0.84523  0.28393  Biso   1.000  H
  H70      1.0000 0.71187  0.78563  0.28763  Biso   1.000  H
  C41      1.0000 0.77717  0.78213  0.28373  Biso   1.000  C
  H71      1.0000 0.78557  0.81983  0.28923  Biso   1.000  H
  H72      1.0000 0.80697  0.79023  0.27303  Biso   1.000  H
  C42      1.0000 0.73217  0.72943  0.31961  Biso   1.000  C
  C43      1.0000 0.58617  0.76743  0.24743  Biso   1.000  C
  H73      1.0000 0.61857  0.77983  0.23773  Biso   1.000  H
  H74      1.0000 0.56747  0.72603  0.24943  Biso   1.000  H
  H75      1.0000 0.55877  0.77723  0.24143  Biso   1.000  H
  C44      1.0000 0.68207  0.62193  0.31413  Biso   1.000  C
  H76      1.0000 0.71507  0.62943  0.30543  Biso   1.000  H
  H77      1.0000 0.64727  0.60333  0.30553  Biso   1.000  H
  H78      1.0000 0.67857  0.59693  0.32603  Biso   1.000  H
  Cu7      1.0000 0.19035  0.75565  0.81841  Biso   1.000  Cu
  Cu8      1.0000 0.28963  0.09011  0.68966  Biso   1.000  Cu
  Cu9      1.0000 0.23217  0.15764  0.66081  Biso   1.000  Cu
  S13      1.0000 0.13436  0.82333  0.74229  Biso   1.000  S
  S14      1.0000 0.17813  0.94705  0.69578  Biso   1.000  S
  S15      1.0000 0.38623  0.19774  0.59286  Biso   1.000  S
  S16      1.0000 0.45984  0.08379  0.63814  Biso   1.000  S
  S17      1.0000 0.35123  0.93818  0.87090  Biso   1.000  S
  S18      1.0000 0.26754  0.04897  0.83852  Biso   1.000  S
  N39      1.0000 0.18843  0.76687  0.75530  Biso   1.000  N
  N40      1.0000 0.19923  0.74647  0.77270  Biso   1.000  N
  N41      1.0000 0.17813  0.76147  0.78818  Biso   1.000  N
  N42      1.0000 0.12243  0.99697  0.67655  Biso   1.000  N
  N43      1.0000 0.13363  0.04697  0.66826  Biso   1.000  N
  N44      1.0000 0.18723  0.08157  0.67258  Biso   1.000  N
  N45      1.0000 0.21003  0.05437  0.68268  Biso   1.000  N
  N46      1.0000 0.35153  0.87487  0.83635  Biso   1.000  N
  N47      1.0000 0.31423  0.83527  0.82345  Biso   1.000  N
  N48      1.0000 0.26413  0.82607  0.82861  Biso   1.000  N
  N49      1.0000 0.13793  0.72457  0.84260  Biso   1.000  N
  N50      1.0000 0.27293  0.12907  0.60094  Biso   1.000  N
  N51      1.0000 0.23483  0.11757  0.61655  Biso   1.000  N
  N52      1.0000 0.26383  0.14747  0.63217  Biso   1.000  N
  N53      1.0000 0.34593  0.15367  0.70583  Biso   1.000  N
  N54      1.0000 0.35633  0.00927  0.65578  Biso   1.000  N
  N55      1.0000 0.31633  0.00977  0.66794  Biso   1.000  N
  N56      1.0000 0.33453  0.06237  0.67281  Biso   1.000  N
  N57      1.0000 0.28103  0.23687  0.66935  Biso   1.000  N
  C45      1.0000 0.15893  0.79357  0.76027  Biso   1.000  C
  C46      1.0000 0.19773  0.89147  0.73787  Biso   1.000  C
  H79      1.0000 0.22693  0.89747  0.74857  Biso   1.000  H
  H80      1.0000 0.21353  0.89167  0.72367  Biso   1.000  H
  C47      1.0000 0.18493  0.93817  0.73907  Biso   1.000  C
  H81      1.0000 0.16653  0.93537  0.75297  Biso   1.000  H
  H82      1.0000 0.22153  0.97467  0.73897  Biso   1.000  H
  C48      1.0000 0.14883  0.94077  0.72277  Biso   1.000  C
  H83      1.0000 0.14373  0.97407  0.72547  Biso   1.000  H
  H84      1.0000 0.11073  0.90597  0.72347  Biso   1.000  H
  C49      1.0000 0.16933  0.00127  0.68489  Biso   1.000  C
  C50      1.0000 0.20713  0.75947  0.73477  Biso   1.000  C
  H85      1.0000 0.22773  0.73847  0.73627  Biso   1.000  H
  H86      1.0000 0.23243  0.79697  0.72847  Biso   1.000  H
  H87      1.0000 0.17383  0.73807  0.72557  Biso   1.000  H
  C51      1.0000 0.06463  0.94697  0.67447  Biso   1.000  C
  H88      1.0000 0.06333  0.91407  0.68157  Biso   1.000  H
  H89      1.0000 0.05543  0.93817  0.65947  Biso   1.000  H
  H90      1.0000 0.03683  0.95537  0.68107  Biso   1.000  H
  C52      1.0000 0.32283  0.89127  0.85017  Biso   1.000  C
  C53      1.0000 0.38553  0.00647  0.86037  Biso   1.000  C
  H91      1.0000 0.39623  0.03357  0.87227  Biso   1.000  H
  H92      1.0000 0.42163  0.01277  0.85387  Biso   1.000  H
  C54      1.0000 0.33153  0.98387  0.86517  Biso   1.000  C
  H93      1.0000 0.28943  0.96247  0.86377  Biso   1.000  H
  H94      1.0000 0.34083  0.00967  0.87747  Biso   1.000  H
  C55      1.0000 0.35643  0.02297  0.84447  Biso   1.000  C
  H95      1.0000 0.34043  0.99387  0.83307  Biso   1.000  H
  H96      1.0000 0.38413  0.05997  0.83797  Biso   1.000  H
  C56      1.0000 0.30653  0.02827  0.85557  Biso   1.000  C
  H97      1.0000 0.27953  0.99097  0.86197  Biso   1.000  H
  H98      1.0000 0.32313  0.05657  0.86717  Biso   1.000  H
  C57      1.0000 0.99343  0.60137  0.82397  Biso   1.000  C
  H99      1.0000 0.98033  0.57837  0.81077  Biso   1.000  H
  H100     1.0000 0.97063  0.57567  0.83557  Biso   1.000  H
  C58      1.0000 0.41013  0.89007  0.83637  Biso   1.000  C
  H101     1.0000 0.41753  0.87137  0.82447  Biso   1.000  H
  H102     1.0000 0.41903  0.87767  0.84977  Biso   1.000  H
  H103     1.0000 0.43403  0.93157  0.83507  Biso   1.000  H
  C59      1.0000 0.32333  0.16487  0.60787  Biso   1.000  C
  C60      1.0000 0.39663  0.13797  0.58907  Biso   1.000  C
  H104     1.0000 0.43363  0.15337  0.58167  Biso   1.000  H
  H105     1.0000 0.36703  0.11307  0.57877  Biso   1.000  H
  C61      1.0000 0.39703  0.09697  0.60637  Biso   1.000  C
  H106     1.0000 0.36553  0.08797  0.61637  Biso   1.000  H
  H107     1.0000 0.38853  0.06087  0.59937  Biso   1.000  H
  C62      1.0000 0.41403  0.13827  0.61247  Biso   1.000  C
  H108     1.0000 0.43523  0.17857  0.61727  Biso   1.000  H
  H109     1.0000 0.37853  0.11897  0.62097  Biso   1.000  H
  C63      1.0000 0.44383  0.11547  0.61707  Biso   1.000  C
  H110     1.0000 0.45223  0.15317  0.62257  Biso   1.000  H
  H111     1.0000 0.47363  0.12357  0.60637  Biso   1.000  H
  C64      1.0000 0.39883  0.06277  0.65295  Biso   1.000  C
  C65      1.0000 0.25283  0.10077  0.58077  Biso   1.000  C
  H112     1.0000 0.28523  0.11317  0.57107  Biso   1.000  H
  H113     1.0000 0.23413  0.05937  0.58277  Biso   1.000  H
  H114     1.0000 0.22543  0.11057  0.57477  Biso   1.000  H
  C66      1.0000 0.34873  0.95527  0.64747  Biso   1.000  C
  H115     1.0000 0.38173  0.96277  0.63877  Biso   1.000  H
  H116     1.0000 0.31393  0.93667  0.63887  Biso   1.000  H
  H117     1.0000 0.34523  0.93027  0.65937  Biso   1.000  H
  Cu10     1.0000 0.87337  0.17116  0.19968  Biso   1.000  Cu
  N58      1.0000 0.84680  0.20920  0.21902  Biso   1.000  N
  N59      1.0000 0.93550  0.19400  0.17846  Biso   1.000  N
  N60      1.0000 0.73950  0.00740  0.19865  Biso   1.000  N
  N61      1.0000 0.77230  0.05750  0.20755  Biso   1.000  N
  N62      1.0000 0.81140  0.08800  0.19426  Biso   1.000  N
  C67      1.0000 0.75940  0.00700  0.17970  Biso   1.000  C
  C68      1.0000 0.69050  0.96180  0.20990  Biso   1.000  C
  H118     1.0000 0.68630  0.97590  0.22370  Biso   1.000  H
  H119     1.0000 0.69650  0.92930  0.21200  Biso   1.000  H
  H120     1.0000 0.65570  0.94970  0.20150  Biso   1.000  H
  Cu11     1.0000 0.54004  0.50449  0.53301  Biso   1.000  Cu
  N63      1.0000 0.51347  0.54253  0.55235  Biso   1.000  N
  N64      1.0000 0.60217  0.52733  0.51179  Biso   1.000  N
  N65      1.0000 0.40617  0.34073  0.53198  Biso   1.000  N
  N66      1.0000 0.43897  0.39083  0.54088  Biso   1.000  N
  N67      1.0000 0.47807  0.42133  0.52759  Biso   1.000  N
  C69      1.0000 0.42607  0.34033  0.51303  Biso   1.000  C
  C70      1.0000 0.35717  0.29513  0.54323  Biso   1.000  C
  H121     1.0000 0.35297  0.30923  0.55703  Biso   1.000  H
  H122     1.0000 0.36317  0.26263  0.54533  Biso   1.000  H
  H123     1.0000 0.32237  0.28303  0.53483  Biso   1.000  H
  Cu12     1.0000 0.20670  0.83783  0.86635  Biso   1.000  Cu
  N68      1.0000 0.18013  0.87587  0.88569  Biso   1.000  N
  N69      1.0000 0.26883  0.86067  0.84513  Biso   1.000  N
  N70      1.0000 0.07283  0.67407  0.86532  Biso   1.000  N
  N71      1.0000 0.10563  0.72417  0.87422  Biso   1.000  N
  N72      1.0000 0.14473  0.75467  0.86093  Biso   1.000  N
  C71      1.0000 0.09273  0.67367  0.84637  Biso   1.000  C
  C72      1.0000 0.02383  0.62847  0.87657  Biso   1.000  C
  H124     1.0000 0.01963  0.64257  0.89037  Biso   1.000  H
  H125     1.0000 0.02983  0.59597  0.87867  Biso   1.000  H
  H126     1.0000 0.98903  0.61637  0.86817  Biso   1.000  H
  Cu13     1.0000 0.14298  0.91102  0.84826  Biso   1.000  Cu
  Cu14     1.0000 0.04370  0.57656  0.97701  Biso   1.000  Cu
  Cu15     1.0000 0.10116  0.50903  0.00586  Biso   1.000  Cu
  S19      1.0000 0.19897  0.84334  0.92438  Biso   1.000  S
  S20      1.0000 0.15520  0.71962  0.97089  Biso   1.000  S
  S21      1.0000 0.94710  0.46893  0.07381  Biso   1.000  S
  S22      1.0000 0.87349  0.58288  0.02853  Biso   1.000  S
  S23      1.0000 0.98210  0.72849  0.79577  Biso   1.000  S
  S24      1.0000 0.06579  0.61770  0.82815  Biso   1.000  S
  N73      1.0000 0.14490  0.89980  0.91137  Biso   1.000  N
  N74      1.0000 0.13410  0.92020  0.89397  Biso   1.000  N
  N75      1.0000 0.15520  0.90520  0.87849  Biso   1.000  N
  N76      1.0000 0.21090  0.66970  0.99012  Biso   1.000  N
  N77      1.0000 0.19970  0.61970  0.99841  Biso   1.000  N
  N78      1.0000 0.14610  0.58510  0.99409  Biso   1.000  N
  N79      1.0000 0.12330  0.61230  0.98399  Biso   1.000  N
  N80      1.0000 0.98180  0.79180  0.83032  Biso   1.000  N
  N81      1.0000 0.01910  0.83140  0.84322  Biso   1.000  N
  N82      1.0000 0.06920  0.84060  0.83806  Biso   1.000  N
  N83      1.0000 0.19540  0.94210  0.82407  Biso   1.000  N
  N84      1.0000 0.06040  0.53760  0.06573  Biso   1.000  N
  N85      1.0000 0.09850  0.54910  0.05012  Biso   1.000  N
  N86      1.0000 0.06950  0.51920  0.03450  Biso   1.000  N
  N87      1.0000 0.98740  0.51300  0.96084  Biso   1.000  N
  N88      1.0000 0.97700  0.65740  0.01089  Biso   1.000  N
  N89      1.0000 0.01700  0.65690  0.99873  Biso   1.000  N
  N90      1.0000 0.99880  0.60430  0.99386  Biso   1.000  N
  N91      1.0000 0.05230  0.42980  0.99732  Biso   1.000  N
  C73      1.0000 0.17440  0.87310  0.90640  Biso   1.000  C
  C74      1.0000 0.13560  0.77520  0.92880  Biso   1.000  C
  H127     1.0000 0.10640  0.76920  0.91810  Biso   1.000  H
  H128     1.0000 0.11980  0.77500  0.94300  Biso   1.000  H
  C75      1.0000 0.14840  0.72850  0.92760  Biso   1.000  C
  H129     1.0000 0.16680  0.73130  0.91370  Biso   1.000  H
  H130     1.0000 0.11180  0.69200  0.92770  Biso   1.000  H
  C76      1.0000 0.18450  0.72590  0.94390  Biso   1.000  C
  H131     1.0000 0.18960  0.69260  0.94120  Biso   1.000  H
  H132     1.0000 0.22260  0.76070  0.94320  Biso   1.000  H
  C77      1.0000 0.16400  0.66540  0.98178  Biso   1.000  C
  C78      1.0000 0.12620  0.90720  0.93190  Biso   1.000  C
  H133     1.0000 0.10560  0.92820  0.93040  Biso   1.000  H
  H134     1.0000 0.10090  0.86970  0.93820  Biso   1.000  H
  H135     1.0000 0.15950  0.92860  0.94110  Biso   1.000  H
  C79      1.0000 0.26870  0.71970  0.99220  Biso   1.000  C
  H136     1.0000 0.27000  0.75260  0.98510  Biso   1.000  H
  H137     1.0000 0.27790  0.72850  0.00720  Biso   1.000  H
  H138     1.0000 0.29650  0.71130  0.98560  Biso   1.000  H
  C80      1.0000 0.01050  0.77540  0.81650  Biso   1.000  C
  C81      1.0000 0.94780  0.66020  0.80630  Biso   1.000  C
  H139     1.0000 0.93710  0.63310  0.79440  Biso   1.000  H
  H140     1.0000 0.91170  0.65390  0.81280  Biso   1.000  H
  C82      1.0000 0.00180  0.68280  0.80150  Biso   1.000  C
  H141     1.0000 0.04390  0.70420  0.80290  Biso   1.000  H
  H142     1.0000 0.99250  0.65700  0.78920  Biso   1.000  H
  C83      1.0000 0.97690  0.64370  0.82220  Biso   1.000  C
  H143     1.0000 0.99290  0.67280  0.83360  Biso   1.000  H
  H144     1.0000 0.94920  0.60670  0.82870  Biso   1.000  H
  C84      1.0000 0.02680  0.63840  0.81110  Biso   1.000  C
  H145     1.0000 0.05380  0.67570  0.80470  Biso   1.000  H
  H146     1.0000 0.01020  0.61010  0.79950  Biso   1.000  H
  C85      1.0000 0.33990  0.06530  0.84270  Biso   1.000  C
  H147     1.0000 0.35300  0.08830  0.85590  Biso   1.000  H
  H148     1.0000 0.36270  0.09100  0.83110  Biso   1.000  H
  C86      1.0000 0.92320  0.77660  0.83030  Biso   1.000  C
  H149     1.0000 0.91580  0.79530  0.84220  Biso   1.000  H
  H150     1.0000 0.91430  0.78900  0.81690  Biso   1.000  H
  H151     1.0000 0.89930  0.73510  0.83160  Biso   1.000  H
  C87      1.0000 0.01000  0.50180  0.05880  Biso   1.000  C
  C88      1.0000 0.93670  0.52870  0.07760  Biso   1.000  C
  H152     1.0000 0.89970  0.51330  0.08500  Biso   1.000  H
  H153     1.0000 0.96630  0.55360  0.08790  Biso   1.000  H
  C89      1.0000 0.93630  0.56970  0.06030  Biso   1.000  C
  H154     1.0000 0.96780  0.57870  0.05030  Biso   1.000  H
  H155     1.0000 0.94480  0.60580  0.06730  Biso   1.000  H
  C90      1.0000 0.91930  0.52840  0.05420  Biso   1.000  C
  H156     1.0000 0.89810  0.48810  0.04940  Biso   1.000  H
  H157     1.0000 0.95480  0.54770  0.04570  Biso   1.000  H
  C91      1.0000 0.88950  0.55120  0.04960  Biso   1.000  C
  H158     1.0000 0.88110  0.51350  0.04410  Biso   1.000  H
  H159     1.0000 0.85970  0.54310  0.06030  Biso   1.000  H
  C92      1.0000 0.93450  0.60390  0.01372  Biso   1.000  C
  C93      1.0000 0.08050  0.56590  0.08590  Biso   1.000  C
  H160     1.0000 0.04810  0.55350  0.09560  Biso   1.000  H
  H161     1.0000 0.09920  0.60730  0.08390  Biso   1.000  H
  H162     1.0000 0.10790  0.55610  0.09190  Biso   1.000  H
  C94      1.0000 0.98460  0.71140  0.01920  Biso   1.000  C
  H163     1.0000 0.95160  0.70390  0.02790  Biso   1.000  H
  H164     1.0000 0.01940  0.73000  0.02780  Biso   1.000  H
  H165     1.0000 0.98810  0.73640  0.00730  Biso   1.000  H
  Cu16     1.0000 0.80965  0.24435  0.18159  Biso   1.000  Cu
  Cu17     1.0000 0.71037  0.90989  0.31034  Biso   1.000  Cu
  Cu18     1.0000 0.76783  0.84236  0.33919  Biso   1.000  Cu
  S25      1.0000 0.86564  0.17667  0.25771  Biso   1.000  S
  S26      1.0000 0.82187  0.05295  0.30422  Biso   1.000  S
  S27      1.0000 0.61377  0.80226  0.40714  Biso   1.000  S
  S28      1.0000 0.54016  0.91621  0.36186  Biso   1.000  S
  S29      1.0000 0.64877  0.06182  0.12910  Biso   1.000  S
  S30      1.0000 0.73246  0.95103  0.16148  Biso   1.000  S
  N92      1.0000 0.81157  0.23313  0.24470  Biso   1.000  N
  N93      1.0000 0.80077  0.25353  0.22730  Biso   1.000  N
  N94      1.0000 0.82187  0.23853  0.21182  Biso   1.000  N
  N95      1.0000 0.87757  0.00303  0.32345  Biso   1.000  N
  N96      1.0000 0.86637  0.95303  0.33174  Biso   1.000  N
  N97      1.0000 0.81277  0.91843  0.32742  Biso   1.000  N
  N98      1.0000 0.78997  0.94563  0.31732  Biso   1.000  N
  N99      1.0000 0.64847  0.12513  0.16365  Biso   1.000  N
  N100     1.0000 0.68577  0.16473  0.17655  Biso   1.000  N
  N101     1.0000 0.73587  0.17393  0.17139  Biso   1.000  N
  N102     1.0000 0.86207  0.27543  0.15740  Biso   1.000  N
  N103     1.0000 0.72707  0.87093  0.39906  Biso   1.000  N
  N104     1.0000 0.76517  0.88243  0.38345  Biso   1.000  N
  N105     1.0000 0.73617  0.85253  0.36783  Biso   1.000  N
  N106     1.0000 0.65407  0.84633  0.29417  Biso   1.000  N
  N107     1.0000 0.64367  0.99073  0.34422  Biso   1.000  N
  N108     1.0000 0.68367  0.99023  0.33206  Biso   1.000  N
  N109     1.0000 0.66547  0.93763  0.32719  Biso   1.000  N
  N110     1.0000 0.71897  0.76313  0.33065  Biso   1.000  N
  C95      1.0000 0.84107  0.20643  0.23973  Biso   1.000  C
  C96      1.0000 0.80227  0.10853  0.26213  Biso   1.000  C
  H166     1.0000 0.77307  0.10253  0.25143  Biso   1.000  H
  H167     1.0000 0.78647  0.10833  0.27633  Biso   1.000  H
  C97      1.0000 0.81507  0.06183  0.26093  Biso   1.000  C
  H168     1.0000 0.83347  0.06463  0.24703  Biso   1.000  H
  H169     1.0000 0.77847  0.02533  0.26103  Biso   1.000  H
  C98      1.0000 0.85117  0.05923  0.27723  Biso   1.000  C
  H170     1.0000 0.85627  0.02593  0.27453  Biso   1.000  H
  H171     1.0000 0.88927  0.09403  0.27653  Biso   1.000  H
  C99      1.0000 0.83067  0.99873  0.31511  Biso   1.000  C
  C100     1.0000 0.79287  0.24053  0.26523  Biso   1.000  C
  H172     1.0000 0.77227  0.26153  0.26373  Biso   1.000  H
  H173     1.0000 0.76757  0.20303  0.27153  Biso   1.000  H
  H174     1.0000 0.82617  0.26193  0.27443  Biso   1.000  H
  C101     1.0000 0.93537  0.05303  0.32553  Biso   1.000  C
  H175     1.0000 0.93667  0.08593  0.31843  Biso   1.000  H
  H176     1.0000 0.94457  0.06183  0.34053  Biso   1.000  H
  H177     1.0000 0.96317  0.04463  0.31893  Biso   1.000  H
  C102     1.0000 0.67717  0.10873  0.14983  Biso   1.000  C
  C103     1.0000 0.61447  0.99353  0.13963  Biso   1.000  C
  H178     1.0000 0.60377  0.96643  0.12773  Biso   1.000  H
  H179     1.0000 0.57837  0.98723  0.14613  Biso   1.000  H
  C104     1.0000 0.66847  0.01613  0.13483  Biso   1.000  C
  H180     1.0000 0.71057  0.03753  0.13623  Biso   1.000  H
  H181     1.0000 0.65917  0.99033  0.12253  Biso   1.000  H
  C105     1.0000 0.64357  0.97703  0.15553  Biso   1.000  C
  H182     1.0000 0.65957  0.00613  0.16693  Biso   1.000  H
  H183     1.0000 0.61587  0.94003  0.16203  Biso   1.000  H
  C106     1.0000 0.69347  0.97173  0.14443  Biso   1.000  C
  H184     1.0000 0.72047  0.00903  0.13803  Biso   1.000  H
  H185     1.0000 0.67687  0.94343  0.13283  Biso   1.000  H
  C107     1.0000 0.00657  0.39863  0.17603  Biso   1.000  C
  H186     1.0000 0.01967  0.42163  0.18923  Biso   1.000  H
  H187     1.0000 0.02937  0.42433  0.16443  Biso   1.000  H
  C108     1.0000 0.58987  0.10993  0.16363  Biso   1.000  C
  H188     1.0000 0.58247  0.12863  0.17553  Biso   1.000  H
  H189     1.0000 0.58097  0.12233  0.15023  Biso   1.000  H
  H190     1.0000 0.56597  0.06843  0.16493  Biso   1.000  H
  C109     1.0000 0.67667  0.83513  0.39213  Biso   1.000  C
  C110     1.0000 0.60337  0.86203  0.41093  Biso   1.000  C
  H191     1.0000 0.56637  0.84663  0.41833  Biso   1.000  H
  H192     1.0000 0.63297  0.88693  0.42123  Biso   1.000  H
  C111     1.0000 0.60297  0.90303  0.39363  Biso   1.000  C
  H193     1.0000 0.63447  0.91203  0.38363  Biso   1.000  H
  H194     1.0000 0.61147  0.93913  0.40063  Biso   1.000  H
  C112     1.0000 0.58597  0.86173  0.38753  Biso   1.000  C
  H195     1.0000 0.56477  0.82143  0.38273  Biso   1.000  H
  H196     1.0000 0.62147  0.88103  0.37903  Biso   1.000  H
  C113     1.0000 0.55617  0.88453  0.38293  Biso   1.000  C
  H197     1.0000 0.54777  0.84683  0.37743  Biso   1.000  H
  H198     1.0000 0.52637  0.87643  0.39363  Biso   1.000  H
  C114     1.0000 0.60117  0.93723  0.34705  Biso   1.000  C
  C115     1.0000 0.74717  0.89923  0.41923  Biso   1.000  C
  H199     1.0000 0.71477  0.88683  0.42893  Biso   1.000  H
  H200     1.0000 0.76587  0.94063  0.41723  Biso   1.000  H
  H201     1.0000 0.77457  0.88943  0.42523  Biso   1.000  H
  C116     1.0000 0.65127  0.04473  0.35253  Biso   1.000  C
  H202     1.0000 0.61827  0.03723  0.36123  Biso   1.000  H
  H203     1.0000 0.68607  0.06333  0.36113  Biso   1.000  H
  H204     1.0000 0.65477  0.06973  0.34063  Biso   1.000  H
  Cu19     1.0000 0.47631  0.57769  0.51493  Biso   1.000  Cu
  Cu20     1.0000 0.37703  0.24323  0.64368  Biso   1.000  Cu
  Cu21     1.0000 0.43449  0.17570  0.67253  Biso   1.000  Cu
  S31      1.0000 0.53230  0.51001  0.59105  Biso   1.000  S
  S32      1.0000 0.48853  0.38629  0.63756  Biso   1.000  S
  S33      1.0000 0.28043  0.13560  0.74048  Biso   1.000  S
  S34      1.0000 0.20682  0.24955  0.69520  Biso   1.000  S
  S35      1.0000 0.31543  0.39516  0.46244  Biso   1.000  S
  S36      1.0000 0.39912  0.28437  0.49482  Biso   1.000  S
  N111     1.0000 0.47823  0.56647  0.57804  Biso   1.000  N
  N112     1.0000 0.46743  0.58687  0.56064  Biso   1.000  N
  N113     1.0000 0.48853  0.57187  0.54516  Biso   1.000  N
  N114     1.0000 0.54423  0.33637  0.65679  Biso   1.000  N
  N115     1.0000 0.53303  0.28637  0.66508  Biso   1.000  N
  N116     1.0000 0.47943  0.25177  0.66076  Biso   1.000  N
  N117     1.0000 0.45663  0.27897  0.65066  Biso   1.000  N
  N118     1.0000 0.31513  0.45847  0.49699  Biso   1.000  N
  N119     1.0000 0.35243  0.49807  0.50989  Biso   1.000  N
  N120     1.0000 0.40253  0.50727  0.50473  Biso   1.000  N
  N121     1.0000 0.52873  0.60877  0.49074  Biso   1.000  N
  N122     1.0000 0.39373  0.20427  0.73240  Biso   1.000  N
  N123     1.0000 0.43183  0.21577  0.71679  Biso   1.000  N
  N124     1.0000 0.40283  0.18587  0.70117  Biso   1.000  N
  N125     1.0000 0.32073  0.17967  0.62751  Biso   1.000  N
  N126     1.0000 0.31033  0.32407  0.67756  Biso   1.000  N
  N127     1.0000 0.35033  0.32357  0.66540  Biso   1.000  N
  N128     1.0000 0.33213  0.27097  0.66053  Biso   1.000  N
  N129     1.0000 0.38563  0.09647  0.66399  Biso   1.000  N
  C117     1.0000 0.50773  0.53977  0.57307  Biso   1.000  C
  C118     1.0000 0.46893  0.44187  0.59547  Biso   1.000  C
  H205     1.0000 0.43973  0.43587  0.58477  Biso   1.000  H
  H206     1.0000 0.45313  0.44167  0.60967  Biso   1.000  H
  C119     1.0000 0.48173  0.39517  0.59427  Biso   1.000  C
  H207     1.0000 0.50013  0.39797  0.58037  Biso   1.000  H
  H208     1.0000 0.44513  0.35867  0.59437  Biso   1.000  H
  C120     1.0000 0.51783  0.39257  0.61057  Biso   1.000  C
  H209     1.0000 0.52293  0.35927  0.60787  Biso   1.000  H
  H210     1.0000 0.55593  0.42737  0.60987  Biso   1.000  H
  C121     1.0000 0.49733  0.33207  0.64845  Biso   1.000  C
  C122     1.0000 0.45953  0.57387  0.59857  Biso   1.000  C
  H211     1.0000 0.43893  0.59487  0.59707  Biso   1.000  H
  H212     1.0000 0.43423  0.53637  0.60487  Biso   1.000  H
  H213     1.0000 0.49283  0.59527  0.60777  Biso   1.000  H
  C123     1.0000 0.60203  0.38637  0.65887  Biso   1.000  C
  H214     1.0000 0.60333  0.41927  0.65177  Biso   1.000  H
  H215     1.0000 0.61123  0.39517  0.67387  Biso   1.000  H
  H216     1.0000 0.62983  0.37797  0.65227  Biso   1.000  H
  C124     1.0000 0.34383  0.44207  0.48317  Biso   1.000  C
  C125     1.0000 0.28113  0.32687  0.47297  Biso   1.000  C
  H217     1.0000 0.27043  0.29977  0.46107  Biso   1.000  H
  H218     1.0000 0.24503  0.32057  0.47947  Biso   1.000  H
  C126     1.0000 0.33513  0.34947  0.46817  Biso   1.000  C
  H219     1.0000 0.37723  0.37087  0.46957  Biso   1.000  H
  H220     1.0000 0.32583  0.32367  0.45587  Biso   1.000  H
  C127     1.0000 0.31023  0.31037  0.48887  Biso   1.000  C
  H221     1.0000 0.32623  0.33947  0.50027  Biso   1.000  H
  H222     1.0000 0.28253  0.27337  0.49537  Biso   1.000  H
  C128     1.0000 0.36013  0.30507  0.47777  Biso   1.000  C
  H223     1.0000 0.38713  0.34237  0.47137  Biso   1.000  H
  H224     1.0000 0.34353  0.27677  0.46617  Biso   1.000  H
  C129     1.0000 0.67323  0.73197  0.50937  Biso   1.000  C
  H225     1.0000 0.68633  0.75497  0.52257  Biso   1.000  H
  H226     1.0000 0.69603  0.75767  0.49777  Biso   1.000  H
  C130     1.0000 0.25653  0.44327  0.49697  Biso   1.000  C
  H227     1.0000 0.24913  0.46197  0.50887  Biso   1.000  H
  H228     1.0000 0.24763  0.45567  0.48357  Biso   1.000  H
  H229     1.0000 0.23263  0.40177  0.49827  Biso   1.000  H
  C131     1.0000 0.34333  0.16847  0.72547  Biso   1.000  C
  C132     1.0000 0.27003  0.19537  0.74427  Biso   1.000  C
  H230     1.0000 0.23303  0.17997  0.75167  Biso   1.000  H
  H231     1.0000 0.29963  0.22027  0.75457  Biso   1.000  H
  C133     1.0000 0.26963  0.23637  0.72697  Biso   1.000  C
  H232     1.0000 0.30113  0.24537  0.71697  Biso   1.000  H
  H233     1.0000 0.27813  0.27247  0.73397  Biso   1.000  H
  C134     1.0000 0.25263  0.19507  0.72087  Biso   1.000  C
  H234     1.0000 0.23143  0.15477  0.71607  Biso   1.000  H
  H235     1.0000 0.28813  0.21437  0.71237  Biso   1.000  H
  C135     1.0000 0.22283  0.21787  0.71627  Biso   1.000  C
  H236     1.0000 0.21443  0.18017  0.71077  Biso   1.000  H
  H237     1.0000 0.19303  0.20977  0.72697  Biso   1.000  H
  C136     1.0000 0.26783  0.27057  0.68039  Biso   1.000  C
  C137     1.0000 0.41383  0.23257  0.75257  Biso   1.000  C
  H238     1.0000 0.38143  0.22017  0.76227  Biso   1.000  H
  H239     1.0000 0.43253  0.27397  0.75057  Biso   1.000  H
  H240     1.0000 0.44123  0.22277  0.75857  Biso   1.000  H
  C138     1.0000 0.31793  0.37807  0.68587  Biso   1.000  C
  H241     1.0000 0.28493  0.37057  0.69457  Biso   1.000  H
  H242     1.0000 0.35273  0.39667  0.69447  Biso   1.000  H
  H243     1.0000 0.32143  0.40307  0.67397  Biso   1.000  H
  Cu22     1.0000 0.12663  0.82884  0.80032  Biso   1.000  Cu
  N130     1.0000 0.15320  0.79080  0.78098  Biso   1.000  N
  N131     1.0000 0.06450  0.80600  0.82154  Biso   1.000  N
  N132     1.0000 0.26050  0.99260  0.80135  Biso   1.000  N
  N133     1.0000 0.22770  0.94250  0.79245  Biso   1.000  N
  N134     1.0000 0.18860  0.91200  0.80574  Biso   1.000  N
  C139     1.0000 0.24060  0.99300  0.82030  Biso   1.000  C
  C140     1.0000 0.30950  0.03820  0.79010  Biso   1.000  C
  H244     1.0000 0.31370  0.02410  0.77630  Biso   1.000  H
  H245     1.0000 0.30350  0.07070  0.78800  Biso   1.000  H
  H246     1.0000 0.34430  0.05030  0.79850  Biso   1.000  H
  Cu23     1.0000 0.79330  0.16217  0.13365  Biso   1.000  Cu
  N135     1.0000 0.81987  0.12413  0.11431  Biso   1.000  N
  N136     1.0000 0.73117  0.13933  0.15487  Biso   1.000  N
  N137     1.0000 0.92717  0.32593  0.13468  Biso   1.000  N
  N138     1.0000 0.89437  0.27583  0.12578  Biso   1.000  N
  N139     1.0000 0.85527  0.24533  0.13907  Biso   1.000  N
  C141     1.0000 0.90727  0.32633  0.15363  Biso   1.000  C
  C142     1.0000 0.97617  0.37153  0.12343  Biso   1.000  C
  H247     1.0000 0.98037  0.35743  0.10963  Biso   1.000  H
  H248     1.0000 0.97017  0.40403  0.12133  Biso   1.000  H
  H249     1.0000 0.01097  0.38363  0.13183  Biso   1.000  H
  Cu24     1.0000 0.45996  0.49551  0.46699  Biso   1.000  Cu
  N140     1.0000 0.48653  0.45747  0.44765  Biso   1.000  N
  N141     1.0000 0.39783  0.47267  0.48821  Biso   1.000  N
  N142     1.0000 0.59383  0.65927  0.46802  Biso   1.000  N
  N143     1.0000 0.56103  0.60917  0.45912  Biso   1.000  N
  N144     1.0000 0.52193  0.57867  0.47241  Biso   1.000  N
  C143     1.0000 0.57393  0.65967  0.48697  Biso   1.000  C
  C144     1.0000 0.64283  0.70487  0.45677  Biso   1.000  C
  H250     1.0000 0.64703  0.69077  0.44297  Biso   1.000  H
  H251     1.0000 0.63683  0.73737  0.45467  Biso   1.000  H
  H252     1.0000 0.67763  0.71697  0.46517  Biso   1.000  H
  Cu25     1.0000 0.82884  0.70221  0.19968  Biso   1.000  Cu
  N145     1.0000 0.79080  0.63760  0.21902  Biso   1.000  N
  N146     1.0000 0.80600  0.74150  0.17846  Biso   1.000  N
  N147     1.0000 0.99260  0.73210  0.19865  Biso   1.000  N
  N148     1.0000 0.94250  0.71480  0.20755  Biso   1.000  N
  N149     1.0000 0.91200  0.72340  0.19426  Biso   1.000  N
  C145     1.0000 0.99300  0.75240  0.17970  Biso   1.000  C
  C146     1.0000 0.03820  0.72870  0.20990  Biso   1.000  C
  H253     1.0000 0.02410  0.71040  0.22370  Biso   1.000  H
  H254     1.0000 0.07070  0.76720  0.21200  Biso   1.000  H
  H255     1.0000 0.05030  0.70600  0.20150  Biso   1.000  H
  Cu26     1.0000 0.49551  0.03554  0.53301  Biso   1.000  Cu
  N150     1.0000 0.45747  0.97093  0.55235  Biso   1.000  N
  N151     1.0000 0.47267  0.07483  0.51179  Biso   1.000  N
  N152     1.0000 0.65927  0.06543  0.53198  Biso   1.000  N
  N153     1.0000 0.60917  0.04813  0.54088  Biso   1.000  N
  N154     1.0000 0.57867  0.05673  0.52759  Biso   1.000  N
  C147     1.0000 0.65967  0.08573  0.51303  Biso   1.000  C
  C148     1.0000 0.70487  0.06203  0.54323  Biso   1.000  C
  H256     1.0000 0.69077  0.04373  0.55703  Biso   1.000  H
  H257     1.0000 0.73737  0.10053  0.54533  Biso   1.000  H
  H258     1.0000 0.71697  0.03933  0.53483  Biso   1.000  H
  Cu27     1.0000 0.16217  0.36888  0.86635  Biso   1.000  Cu
  N155     1.0000 0.12413  0.30427  0.88569  Biso   1.000  N
  N156     1.0000 0.13933  0.40817  0.84513  Biso   1.000  N
  N157     1.0000 0.32593  0.39877  0.86532  Biso   1.000  N
  N158     1.0000 0.27583  0.38147  0.87422  Biso   1.000  N
  N159     1.0000 0.24533  0.39007  0.86093  Biso   1.000  N
  C149     1.0000 0.32633  0.41907  0.84637  Biso   1.000  C
  C150     1.0000 0.37153  0.39537  0.87657  Biso   1.000  C
  H259     1.0000 0.35743  0.37707  0.89037  Biso   1.000  H
  H260     1.0000 0.40403  0.43387  0.87867  Biso   1.000  H
  H261     1.0000 0.38363  0.37267  0.86817  Biso   1.000  H
  Cu28     1.0000 0.91102  0.76804  0.15174  Biso   1.000  Cu
  Cu29     1.0000 0.57656  0.53286  0.02299  Biso   1.000  Cu
  Cu30     1.0000 0.50903  0.40787  0.99414  Biso   1.000  Cu
  S37      1.0000 0.84334  0.64437  0.07562  Biso   1.000  S
  S38      1.0000 0.71962  0.56442  0.02911  Biso   1.000  S
  S39      1.0000 0.46893  0.52183  0.92619  Biso   1.000  S
  S40      1.0000 0.58288  0.70939  0.97147  Biso   1.000  S
  S41      1.0000 0.72849  0.74639  0.20423  Biso   1.000  S
  S42      1.0000 0.61770  0.55191  0.17185  Biso   1.000  S
  N160     1.0000 0.89980  0.75490  0.08863  Biso   1.000  N
  N161     1.0000 0.92020  0.78610  0.10603  Biso   1.000  N
  N162     1.0000 0.90520  0.75000  0.12151  Biso   1.000  N
  N163     1.0000 0.66970  0.45880  0.00988  Biso   1.000  N
  N164     1.0000 0.61970  0.42000  0.00159  Biso   1.000  N
  N165     1.0000 0.58510  0.43900  0.00591  Biso   1.000  N
  N166     1.0000 0.61230  0.48900  0.01601  Biso   1.000  N
  N167     1.0000 0.79180  0.81000  0.16968  Biso   1.000  N
  N168     1.0000 0.83140  0.81230  0.15678  Biso   1.000  N
  N169     1.0000 0.84060  0.77140  0.16194  Biso   1.000  N
  N170     1.0000 0.94210  0.74670  0.17593  Biso   1.000  N
  N171     1.0000 0.53760  0.47720  0.93427  Biso   1.000  N
  N172     1.0000 0.54910  0.45060  0.94988  Biso   1.000  N
  N173     1.0000 0.51920  0.44970  0.96550  Biso   1.000  N
  N174     1.0000 0.51300  0.52560  0.03916  Biso   1.000  N
  N175     1.0000 0.65740  0.68040  0.98911  Biso   1.000  N
  N176     1.0000 0.65690  0.63990  0.00127  Biso   1.000  N
  N177     1.0000 0.60430  0.60550  0.00614  Biso   1.000  N
  N178     1.0000 0.42980  0.37750  0.00268  Biso   1.000  N
  C151     1.0000 0.87310  0.69870  0.09360  Biso   1.000  C
  C152     1.0000 0.77520  0.63960  0.07120  Biso   1.000  C
  H262     1.0000 0.76920  0.66280  0.08190  Biso   1.000  H
  H263     1.0000 0.77500  0.65520  0.05700  Biso   1.000  H
  C153     1.0000 0.72850  0.58010  0.07240  Biso   1.000  C
  H264     1.0000 0.73130  0.56450  0.08630  Biso   1.000  H
  H265     1.0000 0.69200  0.58020  0.07230  Biso   1.000  H
  C154     1.0000 0.72590  0.54140  0.05610  Biso   1.000  C
  H266     1.0000 0.69260  0.50300  0.05880  Biso   1.000  H
  H267     1.0000 0.76070  0.53810  0.05680  Biso   1.000  H
  C155     1.0000 0.66540  0.50140  0.01822  Biso   1.000  C
  C156     1.0000 0.90720  0.78100  0.06810  Biso   1.000  C
  H268     1.0000 0.92820  0.82260  0.06960  Biso   1.000  H
  H269     1.0000 0.86970  0.76880  0.06180  Biso   1.000  H
  H270     1.0000 0.92860  0.76910  0.05890  Biso   1.000  H
  C157     1.0000 0.71970  0.45100  0.00780  Biso   1.000  C
  H271     1.0000 0.75260  0.48260  0.01490  Biso   1.000  H
  H272     1.0000 0.72850  0.45060  0.99280  Biso   1.000  H
  H273     1.0000 0.71130  0.41480  0.01440  Biso   1.000  H
  C158     1.0000 0.77540  0.76490  0.18350  Biso   1.000  C
  C159     1.0000 0.66020  0.71240  0.19370  Biso   1.000  C
  H274     1.0000 0.63310  0.69600  0.20560  Biso   1.000  H
  H275     1.0000 0.65390  0.74220  0.18720  Biso   1.000  H
  C160     1.0000 0.68280  0.68100  0.19850  Biso   1.000  C
  H276     1.0000 0.70420  0.66030  0.19710  Biso   1.000  H
  H277     1.0000 0.65700  0.66450  0.21080  Biso   1.000  H
  C161     1.0000 0.64370  0.66680  0.17780  Biso   1.000  C
  H278     1.0000 0.67280  0.67990  0.16640  Biso   1.000  H
  H279     1.0000 0.60670  0.65750  0.17130  Biso   1.000  H
  C162     1.0000 0.63840  0.61160  0.18890  Biso   1.000  C
  H280     1.0000 0.67570  0.62190  0.19530  Biso   1.000  H
  H281     1.0000 0.61010  0.59990  0.20050  Biso   1.000  H
  C163     1.0000 0.06530  0.72540  0.15730  Biso   1.000  C
  H282     1.0000 0.08830  0.73530  0.14410  Biso   1.000  H
  H283     1.0000 0.09100  0.72830  0.16890  Biso   1.000  H
  C164     1.0000 0.77660  0.85340  0.16970  Biso   1.000  C
  H284     1.0000 0.79530  0.87950  0.15780  Biso   1.000  H
  H285     1.0000 0.78900  0.87470  0.18310  Biso   1.000  H
  H286     1.0000 0.73510  0.83580  0.16840  Biso   1.000  H
  C165     1.0000 0.50180  0.49180  0.94120  Biso   1.000  C
  C166     1.0000 0.52870  0.59200  0.92240  Biso   1.000  C
  H287     1.0000 0.51330  0.61360  0.91500  Biso   1.000  H
  H288     1.0000 0.55360  0.58730  0.91210  Biso   1.000  H
  C167     1.0000 0.56970  0.63340  0.93970  Biso   1.000  C
  H289     1.0000 0.57870  0.61090  0.94970  Biso   1.000  H
  H290     1.0000 0.60580  0.66100  0.93270  Biso   1.000  H
  C168     1.0000 0.52840  0.60910  0.94580  Biso   1.000  C
  H291     1.0000 0.48810  0.59000  0.95060  Biso   1.000  H
  H292     1.0000 0.54770  0.59290  0.95430  Biso   1.000  H
  C169     1.0000 0.55120  0.66170  0.95040  Biso   1.000  C
  H293     1.0000 0.51350  0.63240  0.95590  Biso   1.000  H
  H294     1.0000 0.54310  0.68340  0.93970  Biso   1.000  H
  C170     1.0000 0.60390  0.66940  0.98628  Biso   1.000  C
  C171     1.0000 0.56590  0.48540  0.91410  Biso   1.000  C
  H295     1.0000 0.55350  0.50540  0.90440  Biso   1.000  H
  H296     1.0000 0.60730  0.50810  0.91610  Biso   1.000  H
  H297     1.0000 0.55610  0.44820  0.90810  Biso   1.000  H
  C172     1.0000 0.71140  0.72680  0.98080  Biso   1.000  C
  H298     1.0000 0.70390  0.75230  0.97210  Biso   1.000  H
  H299     1.0000 0.73000  0.71060  0.97220  Biso   1.000  H
  H300     1.0000 0.73640  0.74830  0.99270  Biso   1.000  H
  Cu31     1.0000 0.57769  0.10137  0.48507  Biso   1.000  Cu
  Cu32     1.0000 0.24323  0.86619  0.35632  Biso   1.000  Cu
  Cu33     1.0000 0.17570  0.74120  0.32747  Biso   1.000  Cu
  S43      1.0000 0.51001  0.97770  0.40895  Biso   1.000  S
  S44      1.0000 0.38629  0.89775  0.36244  Biso   1.000  S
  S45      1.0000 0.13560  0.85516  0.25952  Biso   1.000  S
  S46      1.0000 0.24955  0.04272  0.30480  Biso   1.000  S
  S47      1.0000 0.39516  0.07972  0.53756  Biso   1.000  S
  S48      1.0000 0.28437  0.88524  0.50518  Biso   1.000  S
  N179     1.0000 0.56647  0.08823  0.42196  Biso   1.000  N
  N180     1.0000 0.58687  0.11943  0.43936  Biso   1.000  N
  N181     1.0000 0.57187  0.08333  0.45484  Biso   1.000  N
  N182     1.0000 0.33637  0.79213  0.34321  Biso   1.000  N
  N183     1.0000 0.28637  0.75333  0.33492  Biso   1.000  N
  N184     1.0000 0.25177  0.77233  0.33924  Biso   1.000  N
  N185     1.0000 0.27897  0.82233  0.34934  Biso   1.000  N
  N186     1.0000 0.45847  0.14333  0.50301  Biso   1.000  N
  N187     1.0000 0.49807  0.14563  0.49011  Biso   1.000  N
  N188     1.0000 0.50727  0.10473  0.49527  Biso   1.000  N
  N189     1.0000 0.60877  0.08003  0.50926  Biso   1.000  N
  N190     1.0000 0.20427  0.81053  0.26760  Biso   1.000  N
  N191     1.0000 0.21577  0.78393  0.28321  Biso   1.000  N
  N192     1.0000 0.18587  0.78303  0.29883  Biso   1.000  N
  N193     1.0000 0.17967  0.85893  0.37249  Biso   1.000  N
  N194     1.0000 0.32407  0.01373  0.32244  Biso   1.000  N
  N195     1.0000 0.32357  0.97323  0.33460  Biso   1.000  N
  N196     1.0000 0.27097  0.93883  0.33947  Biso   1.000  N
  N197     1.0000 0.09647  0.71083  0.33601  Biso   1.000  N
  C173     1.0000 0.53977  0.03203  0.42693  Biso   1.000  C
  C174     1.0000 0.44187  0.97293  0.40453  Biso   1.000  C
  H301     1.0000 0.43587  0.99613  0.41523  Biso   1.000  H
  H302     1.0000 0.44167  0.98853  0.39033  Biso   1.000  H
  C175     1.0000 0.39517  0.91343  0.40573  Biso   1.000  C
  H303     1.0000 0.39797  0.89783  0.41963  Biso   1.000  H
  H304     1.0000 0.35867  0.91353  0.40563  Biso   1.000  H
  C176     1.0000 0.39257  0.87473  0.38943  Biso   1.000  C
  H305     1.0000 0.35927  0.83633  0.39213  Biso   1.000  H
  H306     1.0000 0.42737  0.87143  0.39013  Biso   1.000  H
  C177     1.0000 0.33207  0.83473  0.35155  Biso   1.000  C
  C178     1.0000 0.57387  0.11433  0.40143  Biso   1.000  C
  H307     1.0000 0.59487  0.15593  0.40293  Biso   1.000  H
  H308     1.0000 0.53637  0.10213  0.39513  Biso   1.000  H
  H309     1.0000 0.59527  0.10243  0.39223  Biso   1.000  H
  C179     1.0000 0.38637  0.78433  0.34113  Biso   1.000  C
  H310     1.0000 0.41927  0.81593  0.34823  Biso   1.000  H
  H311     1.0000 0.39517  0.78393  0.32613  Biso   1.000  H
  H312     1.0000 0.37797  0.74813  0.34773  Biso   1.000  H
  C180     1.0000 0.44207  0.09823  0.51683  Biso   1.000  C
  C181     1.0000 0.32687  0.04573  0.52703  Biso   1.000  C
  H313     1.0000 0.29977  0.02933  0.53893  Biso   1.000  H
  H314     1.0000 0.32057  0.07553  0.52053  Biso   1.000  H
  C182     1.0000 0.34947  0.01433  0.53183  Biso   1.000  C
  H315     1.0000 0.37087  0.99363  0.53043  Biso   1.000  H
  H316     1.0000 0.32367  0.99783  0.54413  Biso   1.000  H
  C183     1.0000 0.31037  0.00013  0.51113  Biso   1.000  C
  H317     1.0000 0.33947  0.01323  0.49973  Biso   1.000  H
  H318     1.0000 0.27337  0.99083  0.50463  Biso   1.000  H
  C184     1.0000 0.30507  0.94493  0.52223  Biso   1.000  C
  H319     1.0000 0.34237  0.95523  0.52863  Biso   1.000  H
  H320     1.0000 0.27677  0.93323  0.53383  Biso   1.000  H
  C185     1.0000 0.73197  0.05873  0.49063  Biso   1.000  C
  H321     1.0000 0.75497  0.06863  0.47743  Biso   1.000  H
  H322     1.0000 0.75767  0.06163  0.50223  Biso   1.000  H
  C186     1.0000 0.44327  0.18673  0.50303  Biso   1.000  C
  H323     1.0000 0.46197  0.21283  0.49113  Biso   1.000  H
  H324     1.0000 0.45567  0.20803  0.51643  Biso   1.000  H
  H325     1.0000 0.40177  0.16913  0.50173  Biso   1.000  H
  C187     1.0000 0.16847  0.82513  0.27453  Biso   1.000  C
  C188     1.0000 0.19537  0.92533  0.25573  Biso   1.000  C
  H326     1.0000 0.17997  0.94693  0.24833  Biso   1.000  H
  H327     1.0000 0.22027  0.92063  0.24543  Biso   1.000  H
  C189     1.0000 0.23637  0.96673  0.27303  Biso   1.000  C
  H328     1.0000 0.24537  0.94423  0.28303  Biso   1.000  H
  H329     1.0000 0.27247  0.99433  0.26603  Biso   1.000  H
  C190     1.0000 0.19507  0.94243  0.27913  Biso   1.000  C
  H330     1.0000 0.15477  0.92333  0.28393  Biso   1.000  H
  H331     1.0000 0.21437  0.92623  0.28763  Biso   1.000  H
  C191     1.0000 0.21787  0.99503  0.28373  Biso   1.000  C
  H332     1.0000 0.18017  0.96573  0.28923  Biso   1.000  H
  H333     1.0000 0.20977  0.01673  0.27303  Biso   1.000  H
  C192     1.0000 0.27057  0.00273  0.31961  Biso   1.000  C
  C193     1.0000 0.23257  0.81873  0.24743  Biso   1.000  C
  H334     1.0000 0.22017  0.83873  0.23773  Biso   1.000  H
  H335     1.0000 0.27397  0.84143  0.24943  Biso   1.000  H
  H336     1.0000 0.22277  0.78153  0.24143  Biso   1.000  H
  C194     1.0000 0.37807  0.06013  0.31413  Biso   1.000  C
  H337     1.0000 0.37057  0.08563  0.30543  Biso   1.000  H
  H338     1.0000 0.39667  0.04393  0.30553  Biso   1.000  H
  H339     1.0000 0.40307  0.08163  0.32603  Biso   1.000  H
  Cu34     1.0000 0.24435  0.43471  0.81841  Biso   1.000  Cu
  Cu35     1.0000 0.90989  0.19953  0.68966  Biso   1.000  Cu
  Cu36     1.0000 0.84236  0.07454  0.66081  Biso   1.000  Cu
  S49      1.0000 0.17667  0.31104  0.74229  Biso   1.000  S
  S50      1.0000 0.05295  0.23109  0.69578  Biso   1.000  S
  S51      1.0000 0.80226  0.18850  0.59286  Biso   1.000  S
  S52      1.0000 0.91621  0.37606  0.63814  Biso   1.000  S
  S53      1.0000 0.06182  0.41306  0.87090  Biso   1.000  S
  S54      1.0000 0.95103  0.21858  0.83852  Biso   1.000  S
  N198     1.0000 0.23313  0.42157  0.75530  Biso   1.000  N
  N199     1.0000 0.25353  0.45277  0.77270  Biso   1.000  N
  N200     1.0000 0.23853  0.41667  0.78818  Biso   1.000  N
  N201     1.0000 0.00303  0.12547  0.67655  Biso   1.000  N
  N202     1.0000 0.95303  0.08667  0.66826  Biso   1.000  N
  N203     1.0000 0.91843  0.10567  0.67258  Biso   1.000  N
  N204     1.0000 0.94563  0.15567  0.68268  Biso   1.000  N
  N205     1.0000 0.12513  0.47667  0.83635  Biso   1.000  N
  N206     1.0000 0.16473  0.47897  0.82345  Biso   1.000  N
  N207     1.0000 0.17393  0.43807  0.82861  Biso   1.000  N
  N208     1.0000 0.27543  0.41337  0.84260  Biso   1.000  N
  N209     1.0000 0.87093  0.14387  0.60094  Biso   1.000  N
  N210     1.0000 0.88243  0.11727  0.61655  Biso   1.000  N
  N211     1.0000 0.85253  0.11637  0.63217  Biso   1.000  N
  N212     1.0000 0.84633  0.19227  0.70583  Biso   1.000  N
  N213     1.0000 0.99073  0.34707  0.65578  Biso   1.000  N
  N214     1.0000 0.99023  0.30657  0.66794  Biso   1.000  N
  N215     1.0000 0.93763  0.27217  0.67281  Biso   1.000  N
  N216     1.0000 0.76313  0.04417  0.66935  Biso   1.000  N
  C195     1.0000 0.20643  0.36537  0.76027  Biso   1.000  C
  C196     1.0000 0.10853  0.30627  0.73787  Biso   1.000  C
  H340     1.0000 0.10253  0.32947  0.74857  Biso   1.000  H
  H341     1.0000 0.10833  0.32187  0.72367  Biso   1.000  H
  C197     1.0000 0.06183  0.24677  0.73907  Biso   1.000  C
  H342     1.0000 0.06463  0.23117  0.75297  Biso   1.000  H
  H343     1.0000 0.02533  0.24687  0.73897  Biso   1.000  H
  C198     1.0000 0.05923  0.20807  0.72277  Biso   1.000  C
  H344     1.0000 0.02593  0.16967  0.72547  Biso   1.000  H
  H345     1.0000 0.09403  0.20477  0.72347  Biso   1.000  H
  C199     1.0000 0.99873  0.16807  0.68489  Biso   1.000  C
  C200     1.0000 0.24053  0.44767  0.73477  Biso   1.000  C
  H346     1.0000 0.26153  0.48927  0.73627  Biso   1.000  H
  H347     1.0000 0.20303  0.43547  0.72847  Biso   1.000  H
  H348     1.0000 0.26193  0.43577  0.72557  Biso   1.000  H
  C201     1.0000 0.05303  0.11767  0.67447  Biso   1.000  C
  H349     1.0000 0.08593  0.14927  0.68157  Biso   1.000  H
  H350     1.0000 0.06183  0.11727  0.65947  Biso   1.000  H
  H351     1.0000 0.04463  0.08147  0.68107  Biso   1.000  H
  C202     1.0000 0.10873  0.43157  0.85017  Biso   1.000  C
  C203     1.0000 0.99353  0.37907  0.86037  Biso   1.000  C
  H352     1.0000 0.96643  0.36267  0.87227  Biso   1.000  H
  H353     1.0000 0.98723  0.40887  0.85387  Biso   1.000  H
  C204     1.0000 0.01613  0.34767  0.86517  Biso   1.000  C
  H354     1.0000 0.03753  0.32697  0.86377  Biso   1.000  H
  H355     1.0000 0.99033  0.33117  0.87747  Biso   1.000  H
  C205     1.0000 0.97703  0.33347  0.84447  Biso   1.000  C
  H356     1.0000 0.00613  0.34657  0.83307  Biso   1.000  H
  H357     1.0000 0.94003  0.32417  0.83797  Biso   1.000  H
  C206     1.0000 0.97173  0.27827  0.85557  Biso   1.000  C
  H358     1.0000 0.00903  0.28857  0.86197  Biso   1.000  H
  H359     1.0000 0.94343  0.26657  0.86717  Biso   1.000  H
  C207     1.0000 0.39863  0.39207  0.82397  Biso   1.000  C
  H360     1.0000 0.42163  0.40197  0.81077  Biso   1.000  H
  H361     1.0000 0.42433  0.39497  0.83557  Biso   1.000  H
  C208     1.0000 0.10993  0.52007  0.83637  Biso   1.000  C
  H362     1.0000 0.12863  0.54617  0.82447  Biso   1.000  H
  H363     1.0000 0.12233  0.54137  0.84977  Biso   1.000  H
  H364     1.0000 0.06843  0.50247  0.83507  Biso   1.000  H
  C209     1.0000 0.83513  0.15847  0.60787  Biso   1.000  C
  C210     1.0000 0.86203  0.25867  0.58907  Biso   1.000  C
  H365     1.0000 0.84663  0.28027  0.58167  Biso   1.000  H
  H366     1.0000 0.88693  0.25397  0.57877  Biso   1.000  H
  C211     1.0000 0.90303  0.30007  0.60637  Biso   1.000  C
  H367     1.0000 0.91203  0.27757  0.61637  Biso   1.000  H
  H368     1.0000 0.93913  0.32767  0.59937  Biso   1.000  H
  C212     1.0000 0.86173  0.27577  0.61247  Biso   1.000  C
  H369     1.0000 0.82143  0.25667  0.61727  Biso   1.000  H
  H370     1.0000 0.88103  0.25957  0.62097  Biso   1.000  H
  C213     1.0000 0.88453  0.32837  0.61707  Biso   1.000  C
  H371     1.0000 0.84683  0.29907  0.62257  Biso   1.000  H
  H372     1.0000 0.87643  0.35007  0.60637  Biso   1.000  H
  C214     1.0000 0.93723  0.33607  0.65295  Biso   1.000  C
  C215     1.0000 0.89923  0.15207  0.58077  Biso   1.000  C
  H373     1.0000 0.88683  0.17207  0.57107  Biso   1.000  H
  H374     1.0000 0.94063  0.17477  0.58277  Biso   1.000  H
  H375     1.0000 0.88943  0.11487  0.57477  Biso   1.000  H
  C216     1.0000 0.04473  0.39347  0.64747  Biso   1.000  C
  H376     1.0000 0.03723  0.41897  0.63877  Biso   1.000  H
  H377     1.0000 0.06333  0.37727  0.63887  Biso   1.000  H
  H378     1.0000 0.06973  0.41497  0.65937  Biso   1.000  H
  Cu37     1.0000 0.17116  0.29779  0.80032  Biso   1.000  Cu
  N217     1.0000 0.20920  0.36240  0.78098  Biso   1.000  N
  N218     1.0000 0.19400  0.25850  0.82154  Biso   1.000  N
  N219     1.0000 0.00740  0.26790  0.80135  Biso   1.000  N
  N220     1.0000 0.05750  0.28520  0.79245  Biso   1.000  N
  N221     1.0000 0.08800  0.27660  0.80574  Biso   1.000  N
  C217     1.0000 0.00700  0.24760  0.82030  Biso   1.000  C
  C218     1.0000 0.96180  0.27130  0.79010  Biso   1.000  C
  H379     1.0000 0.97590  0.28960  0.77630  Biso   1.000  H
  H380     1.0000 0.92930  0.23280  0.78800  Biso   1.000  H
  H381     1.0000 0.94970  0.29400  0.79850  Biso   1.000  H
  Cu38     1.0000 0.83783  0.63112  0.13365  Biso   1.000  Cu
  N222     1.0000 0.87587  0.69573  0.11431  Biso   1.000  N
  N223     1.0000 0.86067  0.59183  0.15487  Biso   1.000  N
  N224     1.0000 0.67407  0.60123  0.13468  Biso   1.000  N
  N225     1.0000 0.72417  0.61853  0.12578  Biso   1.000  N
  N226     1.0000 0.75467  0.60993  0.13907  Biso   1.000  N
  C219     1.0000 0.67367  0.58093  0.15363  Biso   1.000  C
  C220     1.0000 0.62847  0.60463  0.12343  Biso   1.000  C
  H382     1.0000 0.64257  0.62293  0.10963  Biso   1.000  H
  H383     1.0000 0.59597  0.56613  0.12133  Biso   1.000  H
  H384     1.0000 0.61637  0.62733  0.13183  Biso   1.000  H
  Cu39     1.0000 0.50449  0.96446  0.46699  Biso   1.000  Cu
  N227     1.0000 0.54253  0.02907  0.44765  Biso   1.000  N
  N228     1.0000 0.52733  0.92517  0.48821  Biso   1.000  N
  N229     1.0000 0.34073  0.93457  0.46802  Biso   1.000  N
  N230     1.0000 0.39083  0.95187  0.45912  Biso   1.000  N
  N231     1.0000 0.42133  0.94327  0.47241  Biso   1.000  N
  C221     1.0000 0.34033  0.91427  0.48697  Biso   1.000  C
  C222     1.0000 0.29513  0.93797  0.45677  Biso   1.000  C
  H385     1.0000 0.30923  0.95627  0.44297  Biso   1.000  H
  H386     1.0000 0.26263  0.89947  0.45467  Biso   1.000  H
  H387     1.0000 0.28303  0.96067  0.46517  Biso   1.000  H
  Cu40     1.0000 0.08898  0.23196  0.84826  Biso   1.000  Cu
  Cu41     1.0000 0.42344  0.46714  0.97701  Biso   1.000  Cu
  Cu42     1.0000 0.49097  0.59213  0.00586  Biso   1.000  Cu
  S55      1.0000 0.15666  0.35563  0.92438  Biso   1.000  S
  S56      1.0000 0.28038  0.43558  0.97089  Biso   1.000  S
  S57      1.0000 0.53107  0.47817  0.07381  Biso   1.000  S
  S58      1.0000 0.41712  0.29061  0.02853  Biso   1.000  S
  S59      1.0000 0.27151  0.25361  0.79577  Biso   1.000  S
  S60      1.0000 0.38230  0.44809  0.82815  Biso   1.000  S
  N232     1.0000 0.10020  0.24510  0.91137  Biso   1.000  N
  N233     1.0000 0.07980  0.21390  0.89397  Biso   1.000  N
  N234     1.0000 0.09480  0.25000  0.87849  Biso   1.000  N
  N235     1.0000 0.33030  0.54120  0.99012  Biso   1.000  N
  N236     1.0000 0.38030  0.58000  0.99841  Biso   1.000  N
  N237     1.0000 0.41490  0.56100  0.99409  Biso   1.000  N
  N238     1.0000 0.38770  0.51100  0.98399  Biso   1.000  N
  N239     1.0000 0.20820  0.19000  0.83032  Biso   1.000  N
  N240     1.0000 0.16860  0.18770  0.84322  Biso   1.000  N
  N241     1.0000 0.15940  0.22860  0.83806  Biso   1.000  N
  N242     1.0000 0.05790  0.25330  0.82407  Biso   1.000  N
  N243     1.0000 0.46240  0.52280  0.06573  Biso   1.000  N
  N244     1.0000 0.45090  0.54940  0.05012  Biso   1.000  N
  N245     1.0000 0.48080  0.55030  0.03450  Biso   1.000  N
  N246     1.0000 0.48700  0.47440  0.96084  Biso   1.000  N
  N247     1.0000 0.34260  0.31960  0.01089  Biso   1.000  N
  N248     1.0000 0.34310  0.36010  0.99873  Biso   1.000  N
  N249     1.0000 0.39570  0.39450  0.99386  Biso   1.000  N
  N250     1.0000 0.57020  0.62250  0.99732  Biso   1.000  N
  C223     1.0000 0.12690  0.30130  0.90640  Biso   1.000  C
  C224     1.0000 0.22480  0.36040  0.92880  Biso   1.000  C
  H388     1.0000 0.23080  0.33720  0.91810  Biso   1.000  H
  H389     1.0000 0.22500  0.34480  0.94300  Biso   1.000  H
  C225     1.0000 0.27150  0.41990  0.92760  Biso   1.000  C
  H390     1.0000 0.26870  0.43550  0.91370  Biso   1.000  H
  H391     1.0000 0.30800  0.41980  0.92770  Biso   1.000  H
  C226     1.0000 0.27410  0.45860  0.94390  Biso   1.000  C
  H392     1.0000 0.30740  0.49700  0.94120  Biso   1.000  H
  H393     1.0000 0.23930  0.46190  0.94320  Biso   1.000  H
  C227     1.0000 0.33460  0.49860  0.98178  Biso   1.000  C
  C228     1.0000 0.09280  0.21900  0.93190  Biso   1.000  C
  H394     1.0000 0.07180  0.17740  0.93040  Biso   1.000  H
  H395     1.0000 0.13030  0.23120  0.93820  Biso   1.000  H
  H396     1.0000 0.07140  0.23090  0.94110  Biso   1.000  H
  C229     1.0000 0.28030  0.54900  0.99220  Biso   1.000  C
  H397     1.0000 0.24740  0.51740  0.98510  Biso   1.000  H
  H398     1.0000 0.27150  0.54940  0.00720  Biso   1.000  H
  H399     1.0000 0.28870  0.58520  0.98560  Biso   1.000  H
  C230     1.0000 0.22460  0.23510  0.81650  Biso   1.000  C
  C231     1.0000 0.33980  0.28760  0.80630  Biso   1.000  C
  H400     1.0000 0.36690  0.30400  0.79440  Biso   1.000  H
  H401     1.0000 0.34610  0.25780  0.81280  Biso   1.000  H
  C232     1.0000 0.31720  0.31900  0.80150  Biso   1.000  C
  H402     1.0000 0.29580  0.33970  0.80290  Biso   1.000  H
  H403     1.0000 0.34300  0.33550  0.78920  Biso   1.000  H
  C233     1.0000 0.35630  0.33320  0.82220  Biso   1.000  C
  H404     1.0000 0.32720  0.32010  0.83360  Biso   1.000  H
  H405     1.0000 0.39330  0.34250  0.82870  Biso   1.000  H
  C234     1.0000 0.36160  0.38840  0.81110  Biso   1.000  C
  H406     1.0000 0.32430  0.37810  0.80470  Biso   1.000  H
  H407     1.0000 0.38990  0.40010  0.79950  Biso   1.000  H
  C235     1.0000 0.93470  0.27460  0.84270  Biso   1.000  C
  H408     1.0000 0.91170  0.26470  0.85590  Biso   1.000  H
  H409     1.0000 0.90900  0.27170  0.83110  Biso   1.000  H
  C236     1.0000 0.22340  0.14660  0.83030  Biso   1.000  C
  H410     1.0000 0.20470  0.12050  0.84220  Biso   1.000  H
  H411     1.0000 0.21100  0.12530  0.81690  Biso   1.000  H
  H412     1.0000 0.26490  0.16420  0.83160  Biso   1.000  H
  C237     1.0000 0.49820  0.50820  0.05880  Biso   1.000  C
  C238     1.0000 0.47130  0.40800  0.07760  Biso   1.000  C
  H413     1.0000 0.48670  0.38640  0.08500  Biso   1.000  H
  H414     1.0000 0.44640  0.41270  0.08790  Biso   1.000  H
  C239     1.0000 0.43030  0.36660  0.06030  Biso   1.000  C
  H415     1.0000 0.42130  0.38910  0.05030  Biso   1.000  H
  H416     1.0000 0.39420  0.33900  0.06730  Biso   1.000  H
  C240     1.0000 0.47160  0.39090  0.05420  Biso   1.000  C
  H417     1.0000 0.51190  0.41000  0.04940  Biso   1.000  H
  H418     1.0000 0.45230  0.40710  0.04570  Biso   1.000  H
  C241     1.0000 0.44880  0.33830  0.04960  Biso   1.000  C
  H419     1.0000 0.48650  0.36760  0.04410  Biso   1.000  H
  H420     1.0000 0.45690  0.31660  0.06030  Biso   1.000  H
  C242     1.0000 0.39610  0.33060  0.01372  Biso   1.000  C
  C243     1.0000 0.43410  0.51460  0.08590  Biso   1.000  C
  H421     1.0000 0.44650  0.49460  0.09560  Biso   1.000  H
  H422     1.0000 0.39270  0.49190  0.08390  Biso   1.000  H
  H423     1.0000 0.44390  0.55180  0.09190  Biso   1.000  H
  C244     1.0000 0.28860  0.27320  0.01920  Biso   1.000  C
  H424     1.0000 0.29610  0.24770  0.02790  Biso   1.000  H
  H425     1.0000 0.27000  0.28940  0.02780  Biso   1.000  H
  H426     1.0000 0.26360  0.25170  0.00730  Biso   1.000  H
  Cu43     1.0000 0.75565  0.56529  0.18159  Biso   1.000  Cu
  Cu44     1.0000 0.09011  0.80047  0.31034  Biso   1.000  Cu
  Cu45     1.0000 0.15764  0.92546  0.33919  Biso   1.000  Cu
  S61      1.0000 0.82333  0.68896  0.25771  Biso   1.000  S
  S62      1.0000 0.94705  0.76891  0.30422  Biso   1.000  S
  S63      1.0000 0.19774  0.81150  0.40714  Biso   1.000  S
  S64      1.0000 0.08379  0.62394  0.36186  Biso   1.000  S
  S65      1.0000 0.93818  0.58694  0.12910  Biso   1.000  S
  S66      1.0000 0.04897  0.78142  0.16148  Biso   1.000  S
  N251     1.0000 0.76687  0.57843  0.24470  Biso   1.000  N
  N252     1.0000 0.74647  0.54723  0.22730  Biso   1.000  N
  N253     1.0000 0.76147  0.58333  0.21182  Biso   1.000  N
  N254     1.0000 0.99697  0.87453  0.32345  Biso   1.000  N
  N255     1.0000 0.04697  0.91333  0.33174  Biso   1.000  N
  N256     1.0000 0.08157  0.89433  0.32742  Biso   1.000  N
  N257     1.0000 0.05437  0.84433  0.31732  Biso   1.000  N
  N258     1.0000 0.87487  0.52333  0.16365  Biso   1.000  N
  N259     1.0000 0.83527  0.52103  0.17655  Biso   1.000  N
  N260     1.0000 0.82607  0.56193  0.17139  Biso   1.000  N
  N261     1.0000 0.72457  0.58663  0.15740  Biso   1.000  N
  N262     1.0000 0.12907  0.85613  0.39906  Biso   1.000  N
  N263     1.0000 0.11757  0.88273  0.38345  Biso   1.000  N
  N264     1.0000 0.14747  0.88363  0.36783  Biso   1.000  N
  N265     1.0000 0.15367  0.80773  0.29417  Biso   1.000  N
  N266     1.0000 0.00927  0.65293  0.34422  Biso   1.000  N
  N267     1.0000 0.00977  0.69343  0.33206  Biso   1.000  N
  N268     1.0000 0.06237  0.72783  0.32719  Biso   1.000  N
  N269     1.0000 0.23687  0.95583  0.33065  Biso   1.000  N
  C245     1.0000 0.79357  0.63463  0.23973  Biso   1.000  C
  C246     1.0000 0.89147  0.69373  0.26213  Biso   1.000  C
  H427     1.0000 0.89747  0.67053  0.25143  Biso   1.000  H
  H428     1.0000 0.89167  0.67813  0.27633  Biso   1.000  H
  C247     1.0000 0.93817  0.75323  0.26093  Biso   1.000  C
  H429     1.0000 0.93537  0.76883  0.24703  Biso   1.000  H
  H430     1.0000 0.97467  0.75313  0.26103  Biso   1.000  H
  C248     1.0000 0.94077  0.79193  0.27723  Biso   1.000  C
  H431     1.0000 0.97407  0.83033  0.27453  Biso   1.000  H
  H432     1.0000 0.90597  0.79523  0.27653  Biso   1.000  H
  C249     1.0000 0.00127  0.83193  0.31511  Biso   1.000  C
  C250     1.0000 0.75947  0.55233  0.26523  Biso   1.000  C
  H433     1.0000 0.73847  0.51073  0.26373  Biso   1.000  H
  H434     1.0000 0.79697  0.56453  0.27153  Biso   1.000  H
  H435     1.0000 0.73807  0.56423  0.27443  Biso   1.000  H
  C251     1.0000 0.94697  0.88233  0.32553  Biso   1.000  C
  H436     1.0000 0.91407  0.85073  0.31843  Biso   1.000  H
  H437     1.0000 0.93817  0.88273  0.34053  Biso   1.000  H
  H438     1.0000 0.95537  0.91853  0.31893  Biso   1.000  H
  C252     1.0000 0.89127  0.56843  0.14983  Biso   1.000  C
  C253     1.0000 0.00647  0.62093  0.13963  Biso   1.000  C
  H439     1.0000 0.03357  0.63733  0.12773  Biso   1.000  H
  H440     1.0000 0.01277  0.59113  0.14613  Biso   1.000  H
  C254     1.0000 0.98387  0.65233  0.13483  Biso   1.000  C
  H441     1.0000 0.96247  0.67303  0.13623  Biso   1.000  H
  H442     1.0000 0.00967  0.66883  0.12253  Biso   1.000  H
  C255     1.0000 0.02297  0.66653  0.15553  Biso   1.000  C
  H443     1.0000 0.99387  0.65343  0.16693  Biso   1.000  H
  H444     1.0000 0.05997  0.67583  0.16203  Biso   1.000  H
  C256     1.0000 0.02827  0.72173  0.14443  Biso   1.000  C
  H445     1.0000 0.99097  0.71143  0.13803  Biso   1.000  H
  H446     1.0000 0.05657  0.73343  0.13283  Biso   1.000  H
  C257     1.0000 0.60137  0.60793  0.17603  Biso   1.000  C
  H447     1.0000 0.57837  0.59803  0.18923  Biso   1.000  H
  H448     1.0000 0.57567  0.60503  0.16443  Biso   1.000  H
  C258     1.0000 0.89007  0.47993  0.16363  Biso   1.000  C
  H449     1.0000 0.87137  0.45383  0.17553  Biso   1.000  H
  H450     1.0000 0.87767  0.45863  0.15023  Biso   1.000  H
  H451     1.0000 0.93157  0.49753  0.16493  Biso   1.000  H
  C259     1.0000 0.16487  0.84153  0.39213  Biso   1.000  C
  C260     1.0000 0.13797  0.74133  0.41093  Biso   1.000  C
  H452     1.0000 0.15337  0.71973  0.41833  Biso   1.000  H
  H453     1.0000 0.11307  0.74603  0.42123  Biso   1.000  H
  C261     1.0000 0.09697  0.69993  0.39363  Biso   1.000  C
  H454     1.0000 0.08797  0.72243  0.38363  Biso   1.000  H
  H455     1.0000 0.06087  0.67233  0.40063  Biso   1.000  H
  C262     1.0000 0.13827  0.72423  0.38753  Biso   1.000  C
  H456     1.0000 0.17857  0.74333  0.38273  Biso   1.000  H
  H457     1.0000 0.11897  0.74043  0.37903  Biso   1.000  H
  C263     1.0000 0.11547  0.67163  0.38293  Biso   1.000  C
  H458     1.0000 0.15317  0.70093  0.37743  Biso   1.000  H
  H459     1.0000 0.12357  0.64993  0.39363  Biso   1.000  H
  C264     1.0000 0.06277  0.66393  0.34705  Biso   1.000  C
  C265     1.0000 0.10077  0.84793  0.41923  Biso   1.000  C
  H460     1.0000 0.11317  0.82793  0.42893  Biso   1.000  H
  H461     1.0000 0.05937  0.82523  0.41723  Biso   1.000  H
  H462     1.0000 0.11057  0.88513  0.42523  Biso   1.000  H
  C266     1.0000 0.95527  0.60653  0.35253  Biso   1.000  C
  H463     1.0000 0.96277  0.58103  0.36123  Biso   1.000  H
  H464     1.0000 0.93667  0.62273  0.36113  Biso   1.000  H
  H465     1.0000 0.93027  0.58503  0.34063  Biso   1.000  H
  Cu46     1.0000 0.42231  0.89863  0.51493  Biso   1.000  Cu
  Cu47     1.0000 0.75677  0.13381  0.64368  Biso   1.000  Cu
  Cu48     1.0000 0.82430  0.25880  0.67253  Biso   1.000  Cu
  S67      1.0000 0.48999  0.02230  0.59105  Biso   1.000  S
  S68      1.0000 0.61371  0.10225  0.63756  Biso   1.000  S
  S69      1.0000 0.86440  0.14484  0.74048  Biso   1.000  S
  S70      1.0000 0.75045  0.95728  0.69520  Biso   1.000  S
  S71      1.0000 0.60484  0.92028  0.46244  Biso   1.000  S
  S72      1.0000 0.71563  0.11476  0.49482  Biso   1.000  S
  N270     1.0000 0.43353  0.91177  0.57804  Biso   1.000  N
  N271     1.0000 0.41313  0.88057  0.56064  Biso   1.000  N
  N272     1.0000 0.42813  0.91667  0.54516  Biso   1.000  N
  N273     1.0000 0.66363  0.20787  0.65679  Biso   1.000  N
  N274     1.0000 0.71363  0.24667  0.66508  Biso   1.000  N
  N275     1.0000 0.74823  0.22767  0.66076  Biso   1.000  N
  N276     1.0000 0.72103  0.17767  0.65066  Biso   1.000  N
  N277     1.0000 0.54153  0.85667  0.49699  Biso   1.000  N
  N278     1.0000 0.50193  0.85437  0.50989  Biso   1.000  N
  N279     1.0000 0.49273  0.89527  0.50473  Biso   1.000  N
  N280     1.0000 0.39123  0.91997  0.49074  Biso   1.000  N
  N281     1.0000 0.79573  0.18947  0.73240  Biso   1.000  N
  N282     1.0000 0.78423  0.21607  0.71679  Biso   1.000  N
  N283     1.0000 0.81413  0.21697  0.70117  Biso   1.000  N
  N284     1.0000 0.82033  0.14107  0.62751  Biso   1.000  N
  N285     1.0000 0.67593  0.98627  0.67756  Biso   1.000  N
  N286     1.0000 0.67643  0.02677  0.66540  Biso   1.000  N
  N287     1.0000 0.72903  0.06117  0.66053  Biso   1.000  N
  N288     1.0000 0.90353  0.28917  0.66399  Biso   1.000  N
  C267     1.0000 0.46023  0.96797  0.57307  Biso   1.000  C
  C268     1.0000 0.55813  0.02707  0.59547  Biso   1.000  C
  H466     1.0000 0.56413  0.00387  0.58477  Biso   1.000  H
  H467     1.0000 0.55833  0.01147  0.60967  Biso   1.000  H
  C269     1.0000 0.60483  0.08657  0.59427  Biso   1.000  C
  H468     1.0000 0.60203  0.10217  0.58037  Biso   1.000  H
  H469     1.0000 0.64133  0.08647  0.59437  Biso   1.000  H
  C270     1.0000 0.60743  0.12527  0.61057  Biso   1.000  C
  H470     1.0000 0.64073  0.16367  0.60787  Biso   1.000  H
  H471     1.0000 0.57263  0.12857  0.60987  Biso   1.000  H
  C271     1.0000 0.66793  0.16527  0.64845  Biso   1.000  C
  C272     1.0000 0.42613  0.88567  0.59857  Biso   1.000  C
  H472     1.0000 0.40513  0.84407  0.59707  Biso   1.000  H
  H473     1.0000 0.46363  0.89787  0.60487  Biso   1.000  H
  H474     1.0000 0.40473  0.89757  0.60777  Biso   1.000  H
  C273     1.0000 0.61363  0.21567  0.65887  Biso   1.000  C
  H475     1.0000 0.58073  0.18407  0.65177  Biso   1.000  H
  H476     1.0000 0.60483  0.21607  0.67387  Biso   1.000  H
  H477     1.0000 0.62203  0.25187  0.65227  Biso   1.000  H
  C274     1.0000 0.55793  0.90177  0.48317  Biso   1.000  C
  C275     1.0000 0.67313  0.95427  0.47297  Biso   1.000  C
  H478     1.0000 0.70023  0.97067  0.46107  Biso   1.000  H
  H479     1.0000 0.67943  0.92447  0.47947  Biso   1.000  H
  C276     1.0000 0.65053  0.98567  0.46817  Biso   1.000  C
  H480     1.0000 0.62913  0.00637  0.46957  Biso   1.000  H
  H481     1.0000 0.67633  0.00217  0.45587  Biso   1.000  H
  C277     1.0000 0.68963  0.99987  0.48887  Biso   1.000  C
  H482     1.0000 0.66053  0.98677  0.50027  Biso   1.000  H
  H483     1.0000 0.72663  0.00917  0.49537  Biso   1.000  H
  C278     1.0000 0.69493  0.05507  0.47777  Biso   1.000  C
  H484     1.0000 0.65763  0.04477  0.47137  Biso   1.000  H
  H485     1.0000 0.72323  0.06677  0.46617  Biso   1.000  H
  C279     1.0000 0.26803  0.94127  0.50937  Biso   1.000  C
  H486     1.0000 0.24503  0.93137  0.52257  Biso   1.000  H
  H487     1.0000 0.24233  0.93837  0.49777  Biso   1.000  H
  C280     1.0000 0.55673  0.81327  0.49697  Biso   1.000  C
  H488     1.0000 0.53803  0.78717  0.50887  Biso   1.000  H
  H489     1.0000 0.54433  0.79197  0.48357  Biso   1.000  H
  H490     1.0000 0.59823  0.83087  0.49827  Biso   1.000  H
  C281     1.0000 0.83153  0.17487  0.72547  Biso   1.000  C
  C282     1.0000 0.80463  0.07467  0.74427  Biso   1.000  C
  H491     1.0000 0.82003  0.05307  0.75167  Biso   1.000  H
  H492     1.0000 0.77973  0.07937  0.75457  Biso   1.000  H
  C283     1.0000 0.76363  0.03327  0.72697  Biso   1.000  C
  H493     1.0000 0.75463  0.05577  0.71697  Biso   1.000  H
  H494     1.0000 0.72753  0.00567  0.73397  Biso   1.000  H
  C284     1.0000 0.80493  0.05757  0.72087  Biso   1.000  C
  H495     1.0000 0.84523  0.07667  0.71607  Biso   1.000  H
  H496     1.0000 0.78563  0.07377  0.71237  Biso   1.000  H
  C285     1.0000 0.78213  0.00497  0.71627  Biso   1.000  C
  H497     1.0000 0.81983  0.03427  0.71077  Biso   1.000  H
  H498     1.0000 0.79023  0.98327  0.72697  Biso   1.000  H
  C286     1.0000 0.72943  0.99727  0.68039  Biso   1.000  C
  C287     1.0000 0.76743  0.18127  0.75257  Biso   1.000  C
  H499     1.0000 0.77983  0.16127  0.76227  Biso   1.000  H
  H500     1.0000 0.72603  0.15857  0.75057  Biso   1.000  H
  H501     1.0000 0.77723  0.21847  0.75857  Biso   1.000  H
  C288     1.0000 0.62193  0.93987  0.68587  Biso   1.000  C
  H502     1.0000 0.62943  0.91437  0.69457  Biso   1.000  H
  H503     1.0000 0.60333  0.95607  0.69447  Biso   1.000  H
  H504     1.0000 0.59693  0.91837  0.67397  Biso   1.000  H
  Cu49     1.0000 0.29779  0.12663  0.19968  Biso   1.000  Cu
  N289     1.0000 0.36240  0.15320  0.21902  Biso   1.000  N
  N290     1.0000 0.25850  0.06450  0.17846  Biso   1.000  N
  N291     1.0000 0.26790  0.26050  0.19865  Biso   1.000  N
  N292     1.0000 0.28520  0.22770  0.20755  Biso   1.000  N
  N293     1.0000 0.27660  0.18860  0.19426  Biso   1.000  N
  C289     1.0000 0.24760  0.24060  0.17970  Biso   1.000  C
  C290     1.0000 0.27130  0.30950  0.20990  Biso   1.000  C
  H505     1.0000 0.28960  0.31370  0.22370  Biso   1.000  H
  H506     1.0000 0.23280  0.30350  0.21200  Biso   1.000  H
  H507     1.0000 0.29400  0.34430  0.20150  Biso   1.000  H
  Cu50     1.0000 0.96446  0.45996  0.53301  Biso   1.000  Cu
  N294     1.0000 0.02907  0.48653  0.55235  Biso   1.000  N
  N295     1.0000 0.92517  0.39783  0.51179  Biso   1.000  N
  N296     1.0000 0.93457  0.59383  0.53198  Biso   1.000  N
  N297     1.0000 0.95187  0.56103  0.54088  Biso   1.000  N
  N298     1.0000 0.94327  0.52193  0.52759  Biso   1.000  N
  C291     1.0000 0.91427  0.57393  0.51303  Biso   1.000  C
  C292     1.0000 0.93797  0.64283  0.54323  Biso   1.000  C
  H508     1.0000 0.95627  0.64703  0.55703  Biso   1.000  H
  H509     1.0000 0.89947  0.63683  0.54533  Biso   1.000  H
  H510     1.0000 0.96067  0.67763  0.53483  Biso   1.000  H
  Cu51     1.0000 0.63112  0.79330  0.86635  Biso   1.000  Cu
  N299     1.0000 0.69573  0.81987  0.88569  Biso   1.000  N
  N300     1.0000 0.59183  0.73117  0.84513  Biso   1.000  N
  N301     1.0000 0.60123  0.92717  0.86532  Biso   1.000  N
  N302     1.0000 0.61853  0.89437  0.87422  Biso   1.000  N
  N303     1.0000 0.60993  0.85527  0.86093  Biso   1.000  N
  C293     1.0000 0.58093  0.90727  0.84637  Biso   1.000  C
  C294     1.0000 0.60463  0.97617  0.87657  Biso   1.000  C
  H511     1.0000 0.62293  0.98037  0.89037  Biso   1.000  H
  H512     1.0000 0.56613  0.97017  0.87867  Biso   1.000  H
  H513     1.0000 0.62733  0.01097  0.86817  Biso   1.000  H
  Cu52     1.0000 0.23196  0.14298  0.15174  Biso   1.000  Cu
  Cu53     1.0000 0.46714  0.04370  0.02299  Biso   1.000  Cu
  Cu54     1.0000 0.59213  0.10116  0.99414  Biso   1.000  Cu
  S73      1.0000 0.35563  0.19897  0.07562  Biso   1.000  S
  S74      1.0000 0.43558  0.15520  0.02911  Biso   1.000  S
  S75      1.0000 0.47817  0.94710  0.92619  Biso   1.000  S
  S76      1.0000 0.29061  0.87349  0.97147  Biso   1.000  S
  S77      1.0000 0.25361  0.98210  0.20423  Biso   1.000  S
  S78      1.0000 0.44809  0.06579  0.17185  Biso   1.000  S
  N304     1.0000 0.24510  0.14490  0.08863  Biso   1.000  N
  N305     1.0000 0.21390  0.13410  0.10603  Biso   1.000  N
  N306     1.0000 0.25000  0.15520  0.12151  Biso   1.000  N
  N307     1.0000 0.54120  0.21090  0.00988  Biso   1.000  N
  N308     1.0000 0.58000  0.19970  0.00159  Biso   1.000  N
  N309     1.0000 0.56100  0.14610  0.00591  Biso   1.000  N
  N310     1.0000 0.51100  0.12330  0.01601  Biso   1.000  N
  N311     1.0000 0.19000  0.98180  0.16968  Biso   1.000  N
  N312     1.0000 0.18770  0.01910  0.15678  Biso   1.000  N
  N313     1.0000 0.22860  0.06920  0.16194  Biso   1.000  N
  N314     1.0000 0.25330  0.19540  0.17593  Biso   1.000  N
  N315     1.0000 0.52280  0.06040  0.93427  Biso   1.000  N
  N316     1.0000 0.54940  0.09850  0.94988  Biso   1.000  N
  N317     1.0000 0.55030  0.06950  0.96550  Biso   1.000  N
  N318     1.0000 0.47440  0.98740  0.03916  Biso   1.000  N
  N319     1.0000 0.31960  0.97700  0.98911  Biso   1.000  N
  N320     1.0000 0.36010  0.01700  0.00127  Biso   1.000  N
  N321     1.0000 0.39450  0.99880  0.00614  Biso   1.000  N
  N322     1.0000 0.62250  0.05230  0.00268  Biso   1.000  N
  C295     1.0000 0.30130  0.17440  0.09360  Biso   1.000  C
  C296     1.0000 0.36040  0.13560  0.07120  Biso   1.000  C
  H514     1.0000 0.33720  0.10640  0.08190  Biso   1.000  H
  H515     1.0000 0.34480  0.11980  0.05700  Biso   1.000  H
  C297     1.0000 0.41990  0.14840  0.07240  Biso   1.000  C
  H516     1.0000 0.43550  0.16680  0.08630  Biso   1.000  H
  H517     1.0000 0.41980  0.11180  0.07230  Biso   1.000  H
  C298     1.0000 0.45860  0.18450  0.05610  Biso   1.000  C
  H518     1.0000 0.49700  0.18960  0.05880  Biso   1.000  H
  H519     1.0000 0.46190  0.22260  0.05680  Biso   1.000  H
  C299     1.0000 0.49860  0.16400  0.01822  Biso   1.000  C
  C300     1.0000 0.21900  0.12620  0.06810  Biso   1.000  C
  H520     1.0000 0.17740  0.10560  0.06960  Biso   1.000  H
  H521     1.0000 0.23120  0.10090  0.06180  Biso   1.000  H
  H522     1.0000 0.23090  0.15950  0.05890  Biso   1.000  H
  C301     1.0000 0.54900  0.26870  0.00780  Biso   1.000  C
  H523     1.0000 0.51740  0.27000  0.01490  Biso   1.000  H
  H524     1.0000 0.54940  0.27790  0.99280  Biso   1.000  H
  H525     1.0000 0.58520  0.29650  0.01440  Biso   1.000  H
  C302     1.0000 0.23510  0.01050  0.18350  Biso   1.000  C
  C303     1.0000 0.28760  0.94780  0.19370  Biso   1.000  C
  H526     1.0000 0.30400  0.93710  0.20560  Biso   1.000  H
  H527     1.0000 0.25780  0.91170  0.18720  Biso   1.000  H
  C304     1.0000 0.31900  0.00180  0.19850  Biso   1.000  C
  H528     1.0000 0.33970  0.04390  0.19710  Biso   1.000  H
  H529     1.0000 0.33550  0.99250  0.21080  Biso   1.000  H
  C305     1.0000 0.33320  0.97690  0.17780  Biso   1.000  C
  H530     1.0000 0.32010  0.99290  0.16640  Biso   1.000  H
  H531     1.0000 0.34250  0.94920  0.17130  Biso   1.000  H
  C306     1.0000 0.38840  0.02680  0.18890  Biso   1.000  C
  H532     1.0000 0.37810  0.05380  0.19530  Biso   1.000  H
  H533     1.0000 0.40010  0.01020  0.20050  Biso   1.000  H
  C307     1.0000 0.27460  0.33990  0.15730  Biso   1.000  C
  H534     1.0000 0.26470  0.35300  0.14410  Biso   1.000  H
  H535     1.0000 0.27170  0.36270  0.16890  Biso   1.000  H
  C308     1.0000 0.14660  0.92320  0.16970  Biso   1.000  C
  H536     1.0000 0.12050  0.91580  0.15780  Biso   1.000  H
  H537     1.0000 0.12530  0.91430  0.18310  Biso   1.000  H
  H538     1.0000 0.16420  0.89930  0.16840  Biso   1.000  H
  C309     1.0000 0.50820  0.01000  0.94120  Biso   1.000  C
  C310     1.0000 0.40800  0.93670  0.92240  Biso   1.000  C
  H539     1.0000 0.38640  0.89970  0.91500  Biso   1.000  H
  H540     1.0000 0.41270  0.96630  0.91210  Biso   1.000  H
  C311     1.0000 0.36660  0.93630  0.93970  Biso   1.000  C
  H541     1.0000 0.38910  0.96780  0.94970  Biso   1.000  H
  H542     1.0000 0.33900  0.94480  0.93270  Biso   1.000  H
  C312     1.0000 0.39090  0.91930  0.94580  Biso   1.000  C
  H543     1.0000 0.41000  0.89810  0.95060  Biso   1.000  H
  H544     1.0000 0.40710  0.95480  0.95430  Biso   1.000  H
  C313     1.0000 0.33830  0.88950  0.95040  Biso   1.000  C
  H545     1.0000 0.36760  0.88110  0.95590  Biso   1.000  H
  H546     1.0000 0.31660  0.85970  0.93970  Biso   1.000  H
  C314     1.0000 0.33060  0.93450  0.98628  Biso   1.000  C
  C315     1.0000 0.51460  0.08050  0.91410  Biso   1.000  C
  H547     1.0000 0.49460  0.04810  0.90440  Biso   1.000  H
  H548     1.0000 0.49190  0.09920  0.91610  Biso   1.000  H
  H549     1.0000 0.55180  0.10790  0.90810  Biso   1.000  H
  C316     1.0000 0.27320  0.98460  0.98080  Biso   1.000  C
  H550     1.0000 0.24770  0.95160  0.97210  Biso   1.000  H
  H551     1.0000 0.28940  0.01940  0.97220  Biso   1.000  H
  H552     1.0000 0.25170  0.98810  0.99270  Biso   1.000  H
  Cu55     1.0000 0.89863  0.47631  0.48507  Biso   1.000  Cu
  Cu56     1.0000 0.13381  0.37703  0.35632  Biso   1.000  Cu
  Cu57     1.0000 0.25880  0.43449  0.32747  Biso   1.000  Cu
  S79      1.0000 0.02230  0.53230  0.40895  Biso   1.000  S
  S80      1.0000 0.10225  0.48853  0.36244  Biso   1.000  S
  S81      1.0000 0.14484  0.28043  0.25952  Biso   1.000  S
  S82      1.0000 0.95728  0.20682  0.30480  Biso   1.000  S
  S83      1.0000 0.92028  0.31543  0.53756  Biso   1.000  S
  S84      1.0000 0.11476  0.39912  0.50518  Biso   1.000  S
  N323     1.0000 0.91177  0.47823  0.42196  Biso   1.000  N
  N324     1.0000 0.88057  0.46743  0.43936  Biso   1.000  N
  N325     1.0000 0.91667  0.48853  0.45484  Biso   1.000  N
  N326     1.0000 0.20787  0.54423  0.34321  Biso   1.000  N
  N327     1.0000 0.24667  0.53303  0.33492  Biso   1.000  N
  N328     1.0000 0.22767  0.47943  0.33924  Biso   1.000  N
  N329     1.0000 0.17767  0.45663  0.34934  Biso   1.000  N
  N330     1.0000 0.85667  0.31513  0.50301  Biso   1.000  N
  N331     1.0000 0.85437  0.35243  0.49011  Biso   1.000  N
  N332     1.0000 0.89527  0.40253  0.49527  Biso   1.000  N
  N333     1.0000 0.91997  0.52873  0.50926  Biso   1.000  N
  N334     1.0000 0.18947  0.39373  0.26760  Biso   1.000  N
  N335     1.0000 0.21607  0.43183  0.28321  Biso   1.000  N
  N336     1.0000 0.21697  0.40283  0.29883  Biso   1.000  N
  N337     1.0000 0.14107  0.32073  0.37249  Biso   1.000  N
  N338     1.0000 0.98627  0.31033  0.32244  Biso   1.000  N
  N339     1.0000 0.02677  0.35033  0.33460  Biso   1.000  N
  N340     1.0000 0.06117  0.33213  0.33947  Biso   1.000  N
  N341     1.0000 0.28917  0.38563  0.33601  Biso   1.000  N
  C317     1.0000 0.96797  0.50773  0.42693  Biso   1.000  C
  C318     1.0000 0.02707  0.46893  0.40453  Biso   1.000  C
  H553     1.0000 0.00387  0.43973  0.41523  Biso   1.000  H
  H554     1.0000 0.01147  0.45313  0.39033  Biso   1.000  H
  C319     1.0000 0.08657  0.48173  0.40573  Biso   1.000  C
  H555     1.0000 0.10217  0.50013  0.41963  Biso   1.000  H
  H556     1.0000 0.08647  0.44513  0.40563  Biso   1.000  H
  C320     1.0000 0.12527  0.51783  0.38943  Biso   1.000  C
  H557     1.0000 0.16367  0.52293  0.39213  Biso   1.000  H
  H558     1.0000 0.12857  0.55593  0.39013  Biso   1.000  H
  C321     1.0000 0.16527  0.49733  0.35155  Biso   1.000  C
  C322     1.0000 0.88567  0.45953  0.40143  Biso   1.000  C
  H559     1.0000 0.84407  0.43893  0.40293  Biso   1.000  H
  H560     1.0000 0.89787  0.43423  0.39513  Biso   1.000  H
  H561     1.0000 0.89757  0.49283  0.39223  Biso   1.000  H
  C323     1.0000 0.21567  0.60203  0.34113  Biso   1.000  C
  H562     1.0000 0.18407  0.60333  0.34823  Biso   1.000  H
  H563     1.0000 0.21607  0.61123  0.32613  Biso   1.000  H
  H564     1.0000 0.25187  0.62983  0.34773  Biso   1.000  H
  C324     1.0000 0.90177  0.34383  0.51683  Biso   1.000  C
  C325     1.0000 0.95427  0.28113  0.52703  Biso   1.000  C
  H565     1.0000 0.97067  0.27043  0.53893  Biso   1.000  H
  H566     1.0000 0.92447  0.24503  0.52053  Biso   1.000  H
  C326     1.0000 0.98567  0.33513  0.53183  Biso   1.000  C
  H567     1.0000 0.00637  0.37723  0.53043  Biso   1.000  H
  H568     1.0000 0.00217  0.32583  0.54413  Biso   1.000  H
  C327     1.0000 0.99987  0.31023  0.51113  Biso   1.000  C
  H569     1.0000 0.98677  0.32623  0.49973  Biso   1.000  H
  H570     1.0000 0.00917  0.28253  0.50463  Biso   1.000  H
  C328     1.0000 0.05507  0.36013  0.52223  Biso   1.000  C
  H571     1.0000 0.04477  0.38713  0.52863  Biso   1.000  H
  H572     1.0000 0.06677  0.34353  0.53383  Biso   1.000  H
  C329     1.0000 0.94127  0.67323  0.49063  Biso   1.000  C
  H573     1.0000 0.93137  0.68633  0.47743  Biso   1.000  H
  H574     1.0000 0.93837  0.69603  0.50223  Biso   1.000  H
  C330     1.0000 0.81327  0.25653  0.50303  Biso   1.000  C
  H575     1.0000 0.78717  0.24913  0.49113  Biso   1.000  H
  H576     1.0000 0.79197  0.24763  0.51643  Biso   1.000  H
  H577     1.0000 0.83087  0.23263  0.50173  Biso   1.000  H
  C331     1.0000 0.17487  0.34333  0.27453  Biso   1.000  C
  C332     1.0000 0.07467  0.27003  0.25573  Biso   1.000  C
  H578     1.0000 0.05307  0.23303  0.24833  Biso   1.000  H
  H579     1.0000 0.07937  0.29963  0.24543  Biso   1.000  H
  C333     1.0000 0.03327  0.26963  0.27303  Biso   1.000  C
  H580     1.0000 0.05577  0.30113  0.28303  Biso   1.000  H
  H581     1.0000 0.00567  0.27813  0.26603  Biso   1.000  H
  C334     1.0000 0.05757  0.25263  0.27913  Biso   1.000  C
  H582     1.0000 0.07667  0.23143  0.28393  Biso   1.000  H
  H583     1.0000 0.07377  0.28813  0.28763  Biso   1.000  H
  C335     1.0000 0.00497  0.22283  0.28373  Biso   1.000  C
  H584     1.0000 0.03427  0.21443  0.28923  Biso   1.000  H
  H585     1.0000 0.98327  0.19303  0.27303  Biso   1.000  H
  C336     1.0000 0.99727  0.26783  0.31961  Biso   1.000  C
  C337     1.0000 0.18127  0.41383  0.24743  Biso   1.000  C
  H586     1.0000 0.16127  0.38143  0.23773  Biso   1.000  H
  H587     1.0000 0.15857  0.43253  0.24943  Biso   1.000  H
  H588     1.0000 0.21847  0.44123  0.24143  Biso   1.000  H
  C338     1.0000 0.93987  0.31793  0.31413  Biso   1.000  C
  H589     1.0000 0.91437  0.28493  0.30543  Biso   1.000  H
  H590     1.0000 0.95607  0.35273  0.30553  Biso   1.000  H
  H591     1.0000 0.91837  0.32143  0.32603  Biso   1.000  H
  Cu58     1.0000 0.56529  0.80965  0.81841  Biso   1.000  Cu
  Cu59     1.0000 0.80047  0.71037  0.68966  Biso   1.000  Cu
  Cu60     1.0000 0.92546  0.76783  0.66081  Biso   1.000  Cu
  S85      1.0000 0.68896  0.86564  0.74229  Biso   1.000  S
  S86      1.0000 0.76891  0.82187  0.69578  Biso   1.000  S
  S87      1.0000 0.81150  0.61377  0.59286  Biso   1.000  S
  S88      1.0000 0.62394  0.54016  0.63814  Biso   1.000  S
  S89      1.0000 0.58694  0.64877  0.87090  Biso   1.000  S
  S90      1.0000 0.78142  0.73246  0.83852  Biso   1.000  S
  N342     1.0000 0.57843  0.81157  0.75530  Biso   1.000  N
  N343     1.0000 0.54723  0.80077  0.77270  Biso   1.000  N
  N344     1.0000 0.58333  0.82187  0.78818  Biso   1.000  N
  N345     1.0000 0.87453  0.87757  0.67655  Biso   1.000  N
  N346     1.0000 0.91333  0.86637  0.66826  Biso   1.000  N
  N347     1.0000 0.89433  0.81277  0.67258  Biso   1.000  N
  N348     1.0000 0.84433  0.78997  0.68268  Biso   1.000  N
  N349     1.0000 0.52333  0.64847  0.83635  Biso   1.000  N
  N350     1.0000 0.52103  0.68577  0.82345  Biso   1.000  N
  N351     1.0000 0.56193  0.73587  0.82861  Biso   1.000  N
  N352     1.0000 0.58663  0.86207  0.84260  Biso   1.000  N
  N353     1.0000 0.85613  0.72707  0.60094  Biso   1.000  N
  N354     1.0000 0.88273  0.76517  0.61655  Biso   1.000  N
  N355     1.0000 0.88363  0.73617  0.63217  Biso   1.000  N
  N356     1.0000 0.80773  0.65407  0.70583  Biso   1.000  N
  N357     1.0000 0.65293  0.64367  0.65578  Biso   1.000  N
  N358     1.0000 0.69343  0.68367  0.66794  Biso   1.000  N
  N359     1.0000 0.72783  0.66547  0.67281  Biso   1.000  N
  N360     1.0000 0.95583  0.71897  0.66935  Biso   1.000  N
  C339     1.0000 0.63463  0.84107  0.76027  Biso   1.000  C
  C340     1.0000 0.69373  0.80227  0.73787  Biso   1.000  C
  H592     1.0000 0.67053  0.77307  0.74857  Biso   1.000  H
  H593     1.0000 0.67813  0.78647  0.72367  Biso   1.000  H
  C341     1.0000 0.75323  0.81507  0.73907  Biso   1.000  C
  H594     1.0000 0.76883  0.83347  0.75297  Biso   1.000  H
  H595     1.0000 0.75313  0.77847  0.73897  Biso   1.000  H
  C342     1.0000 0.79193  0.85117  0.72277  Biso   1.000  C
  H596     1.0000 0.83033  0.85627  0.72547  Biso   1.000  H
  H597     1.0000 0.79523  0.88927  0.72347  Biso   1.000  H
  C343     1.0000 0.83193  0.83067  0.68489  Biso   1.000  C
  C344     1.0000 0.55233  0.79287  0.73477  Biso   1.000  C
  H598     1.0000 0.51073  0.77227  0.73627  Biso   1.000  H
  H599     1.0000 0.56453  0.76757  0.72847  Biso   1.000  H
  H600     1.0000 0.56423  0.82617  0.72557  Biso   1.000  H
  C345     1.0000 0.88233  0.93537  0.67447  Biso   1.000  C
  H601     1.0000 0.85073  0.93667  0.68157  Biso   1.000  H
  H602     1.0000 0.88273  0.94457  0.65947  Biso   1.000  H
  H603     1.0000 0.91853  0.96317  0.68107  Biso   1.000  H
  C346     1.0000 0.56843  0.67717  0.85017  Biso   1.000  C
  C347     1.0000 0.62093  0.61447  0.86037  Biso   1.000  C
  H604     1.0000 0.63733  0.60377  0.87227  Biso   1.000  H
  H605     1.0000 0.59113  0.57837  0.85387  Biso   1.000  H
  C348     1.0000 0.65233  0.66847  0.86517  Biso   1.000  C
  H606     1.0000 0.67303  0.71057  0.86377  Biso   1.000  H
  H607     1.0000 0.66883  0.65917  0.87747  Biso   1.000  H
  C349     1.0000 0.66653  0.64357  0.84447  Biso   1.000  C
  H608     1.0000 0.65343  0.65957  0.83307  Biso   1.000  H
  H609     1.0000 0.67583  0.61587  0.83797  Biso   1.000  H
  C350     1.0000 0.72173  0.69347  0.85557  Biso   1.000  C
  H610     1.0000 0.71143  0.72047  0.86197  Biso   1.000  H
  H611     1.0000 0.73343  0.67687  0.86717  Biso   1.000  H
  C351     1.0000 0.60793  0.00657  0.82397  Biso   1.000  C
  H612     1.0000 0.59803  0.01967  0.81077  Biso   1.000  H
  H613     1.0000 0.60503  0.02937  0.83557  Biso   1.000  H
  C352     1.0000 0.47993  0.58987  0.83637  Biso   1.000  C
  H614     1.0000 0.45383  0.58247  0.82447  Biso   1.000  H
  H615     1.0000 0.45863  0.58097  0.84977  Biso   1.000  H
  H616     1.0000 0.49753  0.56597  0.83507  Biso   1.000  H
  C353     1.0000 0.84153  0.67667  0.60787  Biso   1.000  C
  C354     1.0000 0.74133  0.60337  0.58907  Biso   1.000  C
  H617     1.0000 0.71973  0.56637  0.58167  Biso   1.000  H
  H618     1.0000 0.74603  0.63297  0.57877  Biso   1.000  H
  C355     1.0000 0.69993  0.60297  0.60637  Biso   1.000  C
  H619     1.0000 0.72243  0.63447  0.61637  Biso   1.000  H
  H620     1.0000 0.67233  0.61147  0.59937  Biso   1.000  H
  C356     1.0000 0.72423  0.58597  0.61247  Biso   1.000  C
  H621     1.0000 0.74333  0.56477  0.61727  Biso   1.000  H
  H622     1.0000 0.74043  0.62147  0.62097  Biso   1.000  H
  C357     1.0000 0.67163  0.55617  0.61707  Biso   1.000  C
  H623     1.0000 0.70093  0.54777  0.62257  Biso   1.000  H
  H624     1.0000 0.64993  0.52637  0.60637  Biso   1.000  H
  C358     1.0000 0.66393  0.60117  0.65295  Biso   1.000  C
  C359     1.0000 0.84793  0.74717  0.58077  Biso   1.000  C
  H625     1.0000 0.82793  0.71477  0.57107  Biso   1.000  H
  H626     1.0000 0.82523  0.76587  0.58277  Biso   1.000  H
  H627     1.0000 0.88513  0.77457  0.57477  Biso   1.000  H
  C360     1.0000 0.60653  0.65127  0.64747  Biso   1.000  C
  H628     1.0000 0.58103  0.61827  0.63877  Biso   1.000  H
  H629     1.0000 0.62273  0.68607  0.63887  Biso   1.000  H
  H630     1.0000 0.58503  0.65477  0.65937  Biso   1.000  H
  Cu61     1.0000 0.70221  0.87337  0.80032  Biso   1.000  Cu
  N361     1.0000 0.63760  0.84680  0.78098  Biso   1.000  N
  N362     1.0000 0.74150  0.93550  0.82154  Biso   1.000  N
  N363     1.0000 0.73210  0.73950  0.80135  Biso   1.000  N
  N364     1.0000 0.71480  0.77230  0.79245  Biso   1.000  N
  N365     1.0000 0.72340  0.81140  0.80574  Biso   1.000  N
  C361     1.0000 0.75240  0.75940  0.82030  Biso   1.000  C
  C362     1.0000 0.72870  0.69050  0.79010  Biso   1.000  C
  H631     1.0000 0.71040  0.68630  0.77630  Biso   1.000  H
  H632     1.0000 0.76720  0.69650  0.78800  Biso   1.000  H
  H633     1.0000 0.70600  0.65570  0.79850  Biso   1.000  H
  Cu62     1.0000 0.36888  0.20670  0.13365  Biso   1.000  Cu
  N366     1.0000 0.30427  0.18013  0.11431  Biso   1.000  N
  N367     1.0000 0.40817  0.26883  0.15487  Biso   1.000  N
  N368     1.0000 0.39877  0.07283  0.13468  Biso   1.000  N
  N369     1.0000 0.38147  0.10563  0.12578  Biso   1.000  N
  N370     1.0000 0.39007  0.14473  0.13907  Biso   1.000  N
  C363     1.0000 0.41907  0.09273  0.15363  Biso   1.000  C
  C364     1.0000 0.39537  0.02383  0.12343  Biso   1.000  C
  H634     1.0000 0.37707  0.01963  0.10963  Biso   1.000  H
  H635     1.0000 0.43387  0.02983  0.12133  Biso   1.000  H
  H636     1.0000 0.37267  0.98903  0.13183  Biso   1.000  H
  Cu63     1.0000 0.03554  0.54004  0.46699  Biso   1.000  Cu
  N371     1.0000 0.97093  0.51347  0.44765  Biso   1.000  N
  N372     1.0000 0.07483  0.60217  0.48821  Biso   1.000  N
  N373     1.0000 0.06543  0.40617  0.46802  Biso   1.000  N
  N374     1.0000 0.04813  0.43897  0.45912  Biso   1.000  N
  N375     1.0000 0.05673  0.47807  0.47241  Biso   1.000  N
  C365     1.0000 0.08573  0.42607  0.48697  Biso   1.000  C
  C366     1.0000 0.06203  0.35717  0.45677  Biso   1.000  C
  H637     1.0000 0.04373  0.35297  0.44297  Biso   1.000  H
  H638     1.0000 0.10053  0.36317  0.45467  Biso   1.000  H
  H639     1.0000 0.03933  0.32237  0.46517  Biso   1.000  H
  Cu64     1.0000 0.76804  0.85702  0.84826  Biso   1.000  Cu
  Cu65     1.0000 0.53286  0.95630  0.97701  Biso   1.000  Cu
  Cu66     1.0000 0.40787  0.89884  0.00586  Biso   1.000  Cu
  S91      1.0000 0.64437  0.80103  0.92438  Biso   1.000  S
  S92      1.0000 0.56442  0.84480  0.97089  Biso   1.000  S
  S93      1.0000 0.52183  0.05290  0.07381  Biso   1.000  S
  S94      1.0000 0.70939  0.12651  0.02853  Biso   1.000  S
  S95      1.0000 0.74639  0.01790  0.79577  Biso   1.000  S
  S96      1.0000 0.55191  0.93421  0.82815  Biso   1.000  S
  N376     1.0000 0.75490  0.85510  0.91137  Biso   1.000  N
  N377     1.0000 0.78610  0.86590  0.89397  Biso   1.000  N
  N378     1.0000 0.75000  0.84480  0.87849  Biso   1.000  N
  N379     1.0000 0.45880  0.78910  0.99012  Biso   1.000  N
  N380     1.0000 0.42000  0.80030  0.99841  Biso   1.000  N
  N381     1.0000 0.43900  0.85390  0.99409  Biso   1.000  N
  N382     1.0000 0.48900  0.87670  0.98399  Biso   1.000  N
  N383     1.0000 0.81000  0.01820  0.83032  Biso   1.000  N
  N384     1.0000 0.81230  0.98090  0.84322  Biso   1.000  N
  N385     1.0000 0.77140  0.93080  0.83806  Biso   1.000  N
  N386     1.0000 0.74670  0.80460  0.82407  Biso   1.000  N
  N387     1.0000 0.47720  0.93960  0.06573  Biso   1.000  N
  N388     1.0000 0.45060  0.90150  0.05012  Biso   1.000  N
  N389     1.0000 0.44970  0.93050  0.03450  Biso   1.000  N
  N390     1.0000 0.52560  0.01260  0.96084  Biso   1.000  N
  N391     1.0000 0.68040  0.02300  0.01089  Biso   1.000  N
  N392     1.0000 0.63990  0.98300  0.99873  Biso   1.000  N
  N393     1.0000 0.60550  0.00120  0.99386  Biso   1.000  N
  N394     1.0000 0.37750  0.94770  0.99732  Biso   1.000  N
  C367     1.0000 0.69870  0.82560  0.90640  Biso   1.000  C
  C368     1.0000 0.63960  0.86440  0.92880  Biso   1.000  C
  H640     1.0000 0.66280  0.89360  0.91810  Biso   1.000  H
  H641     1.0000 0.65520  0.88020  0.94300  Biso   1.000  H
  C369     1.0000 0.58010  0.85160  0.92760  Biso   1.000  C
  H642     1.0000 0.56450  0.83320  0.91370  Biso   1.000  H
  H643     1.0000 0.58020  0.88820  0.92770  Biso   1.000  H
  C370     1.0000 0.54140  0.81550  0.94390  Biso   1.000  C
  H644     1.0000 0.50300  0.81040  0.94120  Biso   1.000  H
  H645     1.0000 0.53810  0.77740  0.94320  Biso   1.000  H
  C371     1.0000 0.50140  0.83600  0.98178  Biso   1.000  C
  C372     1.0000 0.78100  0.87380  0.93190  Biso   1.000  C
  H646     1.0000 0.82260  0.89440  0.93040  Biso   1.000  H
  H647     1.0000 0.76880  0.89910  0.93820  Biso   1.000  H
  H648     1.0000 0.76910  0.84050  0.94110  Biso   1.000  H
  C373     1.0000 0.45100  0.73130  0.99220  Biso   1.000  C
  H649     1.0000 0.48260  0.73000  0.98510  Biso   1.000  H
  H650     1.0000 0.45060  0.72210  0.00720  Biso   1.000  H
  H651     1.0000 0.41480  0.70350  0.98560  Biso   1.000  H
  C374     1.0000 0.76490  0.98950  0.81650  Biso   1.000  C
  C375     1.0000 0.71240  0.05220  0.80630  Biso   1.000  C
  H652     1.0000 0.69600  0.06290  0.79440  Biso   1.000  H
  H653     1.0000 0.74220  0.08830  0.81280  Biso   1.000  H
  C376     1.0000 0.68100  0.99820  0.80150  Biso   1.000  C
  H654     1.0000 0.66030  0.95610  0.80290  Biso   1.000  H
  H655     1.0000 0.66450  0.00750  0.78920  Biso   1.000  H
  C377     1.0000 0.66680  0.02310  0.82220  Biso   1.000  C
  H656     1.0000 0.67990  0.00710  0.83360  Biso   1.000  H
  H657     1.0000 0.65750  0.05080  0.82870  Biso   1.000  H
  C378     1.0000 0.61160  0.97320  0.81110  Biso   1.000  C
  H658     1.0000 0.62190  0.94620  0.80470  Biso   1.000  H
  H659     1.0000 0.59990  0.98980  0.79950  Biso   1.000  H
  C379     1.0000 0.72540  0.66010  0.84270  Biso   1.000  C
  H660     1.0000 0.73530  0.64700  0.85590  Biso   1.000  H
  H661     1.0000 0.72830  0.63730  0.83110  Biso   1.000  H
  C380     1.0000 0.85340  0.07680  0.83030  Biso   1.000  C
  H662     1.0000 0.87950  0.08420  0.84220  Biso   1.000  H
  H663     1.0000 0.87470  0.08570  0.81690  Biso   1.000  H
  H664     1.0000 0.83580  0.10070  0.83160  Biso   1.000  H
  C381     1.0000 0.49180  0.99000  0.05880  Biso   1.000  C
  C382     1.0000 0.59200  0.06330  0.07760  Biso   1.000  C
  H665     1.0000 0.61360  0.10030  0.08500  Biso   1.000  H
  H666     1.0000 0.58730  0.03370  0.08790  Biso   1.000  H
  C383     1.0000 0.63340  0.06370  0.06030  Biso   1.000  C
  H667     1.0000 0.61090  0.03220  0.05030  Biso   1.000  H
  H668     1.0000 0.66100  0.05520  0.06730  Biso   1.000  H
  C384     1.0000 0.60910  0.08070  0.05420  Biso   1.000  C
  H669     1.0000 0.59000  0.10190  0.04940  Biso   1.000  H
  H670     1.0000 0.59290  0.04520  0.04570  Biso   1.000  H
  C385     1.0000 0.66170  0.11050  0.04960  Biso   1.000  C
  H671     1.0000 0.63240  0.11890  0.04410  Biso   1.000  H
  H672     1.0000 0.68340  0.14030  0.06030  Biso   1.000  H
  C386     1.0000 0.66940  0.06550  0.01372  Biso   1.000  C
  C387     1.0000 0.48540  0.91950  0.08590  Biso   1.000  C
  H673     1.0000 0.50540  0.95190  0.09560  Biso   1.000  H
  H674     1.0000 0.50810  0.90080  0.08390  Biso   1.000  H
  H675     1.0000 0.44820  0.89210  0.09190  Biso   1.000  H
  C388     1.0000 0.72680  0.01540  0.01920  Biso   1.000  C
  H676     1.0000 0.75230  0.04840  0.02790  Biso   1.000  H
  H677     1.0000 0.71060  0.98060  0.02780  Biso   1.000  H
  H678     1.0000 0.74830  0.01190  0.00730  Biso   1.000  H
  Cu67     1.0000 0.43471  0.19035  0.18159  Biso   1.000  Cu
  Cu68     1.0000 0.19953  0.28963  0.31034  Biso   1.000  Cu
  Cu69     1.0000 0.07454  0.23217  0.33919  Biso   1.000  Cu
  S97      1.0000 0.31104  0.13436  0.25771  Biso   1.000  S
  S98      1.0000 0.23109  0.17813  0.30422  Biso   1.000  S
  S99      1.0000 0.18850  0.38623  0.40714  Biso   1.000  S
  S100     1.0000 0.37606  0.45984  0.36186  Biso   1.000  S
  S101     1.0000 0.41306  0.35123  0.12910  Biso   1.000  S
  S102     1.0000 0.21858  0.26754  0.16148  Biso   1.000  S
  N395     1.0000 0.42157  0.18843  0.24470  Biso   1.000  N
  N396     1.0000 0.45277  0.19923  0.22730  Biso   1.000  N
  N397     1.0000 0.41667  0.17813  0.21182  Biso   1.000  N
  N398     1.0000 0.12547  0.12243  0.32345  Biso   1.000  N
  N399     1.0000 0.08667  0.13363  0.33174  Biso   1.000  N
  N400     1.0000 0.10567  0.18723  0.32742  Biso   1.000  N
  N401     1.0000 0.15567  0.21003  0.31732  Biso   1.000  N
  N402     1.0000 0.47667  0.35153  0.16365  Biso   1.000  N
  N403     1.0000 0.47897  0.31423  0.17655  Biso   1.000  N
  N404     1.0000 0.43807  0.26413  0.17139  Biso   1.000  N
  N405     1.0000 0.41337  0.13793  0.15740  Biso   1.000  N
  N406     1.0000 0.14387  0.27293  0.39906  Biso   1.000  N
  N407     1.0000 0.11727  0.23483  0.38345  Biso   1.000  N
  N408     1.0000 0.11637  0.26383  0.36783  Biso   1.000  N
  N409     1.0000 0.19227  0.34593  0.29417  Biso   1.000  N
  N410     1.0000 0.34707  0.35633  0.34422  Biso   1.000  N
  N411     1.0000 0.30657  0.31633  0.33206  Biso   1.000  N
  N412     1.0000 0.27217  0.33453  0.32719  Biso   1.000  N
  N413     1.0000 0.04417  0.28103  0.33065  Biso   1.000  N
  C389     1.0000 0.36537  0.15893  0.23973  Biso   1.000  C
  C390     1.0000 0.30627  0.19773  0.26213  Biso   1.000  C
  H679     1.0000 0.32947  0.22693  0.25143  Biso   1.000  H
  H680     1.0000 0.32187  0.21353  0.27633  Biso   1.000  H
  C391     1.0000 0.24677  0.18493  0.26093  Biso   1.000  C
  H681     1.0000 0.23117  0.16653  0.24703  Biso   1.000  H
  H682     1.0000 0.24687  0.22153  0.26103  Biso   1.000  H
  C392     1.0000 0.20807  0.14883  0.27723  Biso   1.000  C
  H683     1.0000 0.16967  0.14373  0.27453  Biso   1.000  H
  H684     1.0000 0.20477  0.11073  0.27653  Biso   1.000  H
  C393     1.0000 0.16807  0.16933  0.31511  Biso   1.000  C
  C394     1.0000 0.44767  0.20713  0.26523  Biso   1.000  C
  H685     1.0000 0.48927  0.22773  0.26373  Biso   1.000  H
  H686     1.0000 0.43547  0.23243  0.27153  Biso   1.000  H
  H687     1.0000 0.43577  0.17383  0.27443  Biso   1.000  H
  C395     1.0000 0.11767  0.06463  0.32553  Biso   1.000  C
  H688     1.0000 0.14927  0.06333  0.31843  Biso   1.000  H
  H689     1.0000 0.11727  0.05543  0.34053  Biso   1.000  H
  H690     1.0000 0.08147  0.03683  0.31893  Biso   1.000  H
  C396     1.0000 0.43157  0.32283  0.14983  Biso   1.000  C
  C397     1.0000 0.37907  0.38553  0.13963  Biso   1.000  C
  H691     1.0000 0.36267  0.39623  0.12773  Biso   1.000  H
  H692     1.0000 0.40887  0.42163  0.14613  Biso   1.000  H
  C398     1.0000 0.34767  0.33153  0.13483  Biso   1.000  C
  H693     1.0000 0.32697  0.28943  0.13623  Biso   1.000  H
  H694     1.0000 0.33117  0.34083  0.12253  Biso   1.000  H
  C399     1.0000 0.33347  0.35643  0.15553  Biso   1.000  C
  H695     1.0000 0.34657  0.34043  0.16693  Biso   1.000  H
  H696     1.0000 0.32417  0.38413  0.16203  Biso   1.000  H
  C400     1.0000 0.27827  0.30653  0.14443  Biso   1.000  C
  H697     1.0000 0.28857  0.27953  0.13803  Biso   1.000  H
  H698     1.0000 0.26657  0.32313  0.13283  Biso   1.000  H
  C401     1.0000 0.39207  0.99343  0.17603  Biso   1.000  C
  H699     1.0000 0.40197  0.98033  0.18923  Biso   1.000  H
  H700     1.0000 0.39497  0.97063  0.16443  Biso   1.000  H
  C402     1.0000 0.52007  0.41013  0.16363  Biso   1.000  C
  H701     1.0000 0.54617  0.41753  0.17553  Biso   1.000  H
  H702     1.0000 0.54137  0.41903  0.15023  Biso   1.000  H
  H703     1.0000 0.50247  0.43403  0.16493  Biso   1.000  H
  C403     1.0000 0.15847  0.32333  0.39213  Biso   1.000  C
  C404     1.0000 0.25867  0.39663  0.41093  Biso   1.000  C
  H704     1.0000 0.28027  0.43363  0.41833  Biso   1.000  H
  H705     1.0000 0.25397  0.36703  0.42123  Biso   1.000  H
  C405     1.0000 0.30007  0.39703  0.39363  Biso   1.000  C
  H706     1.0000 0.27757  0.36553  0.38363  Biso   1.000  H
  H707     1.0000 0.32767  0.38853  0.40063  Biso   1.000  H
  C406     1.0000 0.27577  0.41403  0.38753  Biso   1.000  C
  H708     1.0000 0.25667  0.43523  0.38273  Biso   1.000  H
  H709     1.0000 0.25957  0.37853  0.37903  Biso   1.000  H
  C407     1.0000 0.32837  0.44383  0.38293  Biso   1.000  C
  H710     1.0000 0.29907  0.45223  0.37743  Biso   1.000  H
  H711     1.0000 0.35007  0.47363  0.39363  Biso   1.000  H
  C408     1.0000 0.33607  0.39883  0.34705  Biso   1.000  C
  C409     1.0000 0.15207  0.25283  0.41923  Biso   1.000  C
  H712     1.0000 0.17207  0.28523  0.42893  Biso   1.000  H
  H713     1.0000 0.17477  0.23413  0.41723  Biso   1.000  H
  H714     1.0000 0.11487  0.22543  0.42523  Biso   1.000  H
  C410     1.0000 0.39347  0.34873  0.35253  Biso   1.000  C
  H715     1.0000 0.41897  0.38173  0.36123  Biso   1.000  H
  H716     1.0000 0.37727  0.31393  0.36113  Biso   1.000  H
  H717     1.0000 0.41497  0.34523  0.34063  Biso   1.000  H
  Cu70     1.0000 0.10137  0.52369  0.51493  Biso   1.000  Cu
  Cu71     1.0000 0.86619  0.62297  0.64368  Biso   1.000  Cu
  Cu72     1.0000 0.74120  0.56551  0.67253  Biso   1.000  Cu
  S103     1.0000 0.97770  0.46770  0.59105  Biso   1.000  S
  S104     1.0000 0.89775  0.51147  0.63756  Biso   1.000  S
  S105     1.0000 0.85516  0.71957  0.74048  Biso   1.000  S
  S106     1.0000 0.04272  0.79318  0.69520  Biso   1.000  S
  S107     1.0000 0.07972  0.68457  0.46244  Biso   1.000  S
  S108     1.0000 0.88524  0.60088  0.49482  Biso   1.000  S
  N414     1.0000 0.08823  0.52177  0.57804  Biso   1.000  N
  N415     1.0000 0.11943  0.53257  0.56064  Biso   1.000  N
  N416     1.0000 0.08333  0.51147  0.54516  Biso   1.000  N
  N417     1.0000 0.79213  0.45577  0.65679  Biso   1.000  N
  N418     1.0000 0.75333  0.46697  0.66508  Biso   1.000  N
  N419     1.0000 0.77233  0.52057  0.66076  Biso   1.000  N
  N420     1.0000 0.82233  0.54337  0.65066  Biso   1.000  N
  N421     1.0000 0.14333  0.68487  0.49699  Biso   1.000  N
  N422     1.0000 0.14563  0.64757  0.50989  Biso   1.000  N
  N423     1.0000 0.10473  0.59747  0.50473  Biso   1.000  N
  N424     1.0000 0.08003  0.47127  0.49074  Biso   1.000  N
  N425     1.0000 0.81053  0.60627  0.73240  Biso   1.000  N
  N426     1.0000 0.78393  0.56817  0.71679  Biso   1.000  N
  N427     1.0000 0.78303  0.59717  0.70117  Biso   1.000  N
  N428     1.0000 0.85893  0.67927  0.62751  Biso   1.000  N
  N429     1.0000 0.01373  0.68967  0.67756  Biso   1.000  N
  N430     1.0000 0.97323  0.64967  0.66540  Biso   1.000  N
  N431     1.0000 0.93883  0.66787  0.66053  Biso   1.000  N
  N432     1.0000 0.71083  0.61437  0.66399  Biso   1.000  N
  C411     1.0000 0.03203  0.49227  0.57307  Biso   1.000  C
  C412     1.0000 0.97293  0.53107  0.59547  Biso   1.000  C
  H718     1.0000 0.99613  0.56027  0.58477  Biso   1.000  H
  H719     1.0000 0.98853  0.54687  0.60967  Biso   1.000  H
  C413     1.0000 0.91343  0.51827  0.59427  Biso   1.000  C
  H720     1.0000 0.89783  0.49987  0.58037  Biso   1.000  H
  H721     1.0000 0.91353  0.55487  0.59437  Biso   1.000  H
  C414     1.0000 0.87473  0.48217  0.61057  Biso   1.000  C
  H722     1.0000 0.83633  0.47707  0.60787  Biso   1.000  H
  H723     1.0000 0.87143  0.44407  0.60987  Biso   1.000  H
  C415     1.0000 0.83473  0.50267  0.64845  Biso   1.000  C
  C416     1.0000 0.11433  0.54047  0.59857  Biso   1.000  C
  H724     1.0000 0.15593  0.56107  0.59707  Biso   1.000  H
  H725     1.0000 0.10213  0.56577  0.60487  Biso   1.000  H
  H726     1.0000 0.10243  0.50717  0.60777  Biso   1.000  H
  C417     1.0000 0.78433  0.39797  0.65887  Biso   1.000  C
  H727     1.0000 0.81593  0.39667  0.65177  Biso   1.000  H
  H728     1.0000 0.78393  0.38877  0.67387  Biso   1.000  H
  H729     1.0000 0.74813  0.37017  0.65227  Biso   1.000  H
  C418     1.0000 0.09823  0.65617  0.48317  Biso   1.000  C
  C419     1.0000 0.04573  0.71887  0.47297  Biso   1.000  C
  H730     1.0000 0.02933  0.72957  0.46107  Biso   1.000  H
  H731     1.0000 0.07553  0.75497  0.47947  Biso   1.000  H
  C420     1.0000 0.01433  0.66487  0.46817  Biso   1.000  C
  H732     1.0000 0.99363  0.62277  0.46957  Biso   1.000  H
  H733     1.0000 0.99783  0.67417  0.45587  Biso   1.000  H
  C421     1.0000 0.00013  0.68977  0.48887  Biso   1.000  C
  H734     1.0000 0.01323  0.67377  0.50027  Biso   1.000  H
  H735     1.0000 0.99083  0.71747  0.49537  Biso   1.000  H
  C422     1.0000 0.94493  0.63987  0.47777  Biso   1.000  C
  H736     1.0000 0.95523  0.61287  0.47137  Biso   1.000  H
  H737     1.0000 0.93323  0.65647  0.46617  Biso   1.000  H
  C423     1.0000 0.05873  0.32677  0.50937  Biso   1.000  C
  H738     1.0000 0.06863  0.31367  0.52257  Biso   1.000  H
  H739     1.0000 0.06163  0.30397  0.49777  Biso   1.000  H
  C424     1.0000 0.18673  0.74347  0.49697  Biso   1.000  C
  H740     1.0000 0.21283  0.75087  0.50887  Biso   1.000  H
  H741     1.0000 0.20803  0.75237  0.48357  Biso   1.000  H
  H742     1.0000 0.16913  0.76737  0.49827  Biso   1.000  H
  C425     1.0000 0.82513  0.65667  0.72547  Biso   1.000  C
  C426     1.0000 0.92533  0.72997  0.74427  Biso   1.000  C
  H743     1.0000 0.94693  0.76697  0.75167  Biso   1.000  H
  H744     1.0000 0.92063  0.70037  0.75457  Biso   1.000  H
  C427     1.0000 0.96673  0.73037  0.72697  Biso   1.000  C
  H745     1.0000 0.94423  0.69887  0.71697  Biso   1.000  H
  H746     1.0000 0.99433  0.72187  0.73397  Biso   1.000  H
  C428     1.0000 0.94243  0.74737  0.72087  Biso   1.000  C
  H747     1.0000 0.92333  0.76857  0.71607  Biso   1.000  H
  H748     1.0000 0.92623  0.71187  0.71237  Biso   1.000  H
  C429     1.0000 0.99503  0.77717  0.71627  Biso   1.000  C
  H749     1.0000 0.96573  0.78557  0.71077  Biso   1.000  H
  H750     1.0000 0.01673  0.80697  0.72697  Biso   1.000  H
  C430     1.0000 0.00273  0.73217  0.68039  Biso   1.000  C
  C431     1.0000 0.81873  0.58617  0.75257  Biso   1.000  C
  H751     1.0000 0.83873  0.61857  0.76227  Biso   1.000  H
  H752     1.0000 0.84143  0.56747  0.75057  Biso   1.000  H
  H753     1.0000 0.78153  0.55877  0.75857  Biso   1.000  H
  C432     1.0000 0.06013  0.68207  0.68587  Biso   1.000  C
  H754     1.0000 0.08563  0.71507  0.69457  Biso   1.000  H
  H755     1.0000 0.04393  0.64727  0.69447  Biso   1.000  H
  H756     1.0000 0.08163  0.67857  0.67397  Biso   1.000  H
