data_image0
_cell_length_a       42.933
_cell_length_b       42.933
_cell_length_c       12.073
_cell_angle_alpha    90
_cell_angle_beta     90
_cell_angle_gamma    120

_symmetry_space_group_name_H-M    "P 1"
_symmetry_int_tables_number       1

loop_
  _symmetry_equiv_pos_as_xyz
  'x, y, z'

loop_
  _atom_site_label
  _atom_site_occupancy
  _atom_site_fract_x
  _atom_site_fract_y
  _atom_site_fract_z
  _atom_site_thermal_displace_type
  _atom_site_B_iso_or_equiv
  _atom_site_type_symbol
  Dy1      1.0000 0.52110  0.52847  0.13175  Biso   1.000  Dy
  F1       1.0000 0.60737  0.65411  0.13170  Biso   1.000  F
  F2       1.0000 0.60980  0.64906  0.95870  Biso   1.000  F
  F3       1.0000 0.65305  0.65806  0.05860  Biso   1.000  F
  F4       1.0000 0.64330  0.65745  0.12560  Biso   1.000  F
  F5       1.0000 0.59706  0.65197  0.02850  Biso   1.000  F
  F6       1.0000 0.63880  0.64814  0.95580  Biso   1.000  F
  F7       1.0000 0.62485  0.50691  0.05530  Biso   1.000  F
  F8       1.0000 0.66510  0.55571  0.12820  Biso   1.000  F
  F9       1.0000 0.62384  0.51614  0.22860  Biso   1.000  F
  F10      1.0000 0.62411  0.61011  0.35377  Biso   1.000  F
  F11      1.0000 0.61008  0.58662  0.51528  Biso   1.000  F
  F12      1.0000 0.58471  0.61434  0.44880  Biso   1.000  F
  F13      1.0000 0.48021  0.43736  0.43092  Biso   1.000  F
  F14      1.0000 0.52735  0.43813  0.38170  Biso   1.000  F
  F15      1.0000 0.52586  0.46167  0.53720  Biso   1.000  F
  F16      1.0000 0.39739  0.46472  0.32771  Biso   1.000  F
  F17      1.0000 0.38694  0.45407  0.15498  Biso   1.000  F
  F18      1.0000 0.37455  0.49108  0.23570  Biso   1.000  F
  F19      1.0000 0.48967  0.62040  0.32390  Biso   1.000  F
  F20      1.0000 0.45783  0.61587  0.18310  Biso   1.000  F
  F21      1.0000 0.51345  0.63612  0.16350  Biso   1.000  F
  O1       1.0000 0.50144  0.52776  0.95015  Biso   1.000  O
  O2       1.0000 0.56685  0.58331  0.05614  Biso   1.000  O
  O3       1.0000 0.57299  0.52432  0.11102  Biso   1.000  O
  O4       1.0000 0.55647  0.56360  0.28037  Biso   1.000  O
  O5       1.0000 0.51278  0.49035  0.28295  Biso   1.000  O
  O6       1.0000 0.45792  0.49903  0.17710  Biso   1.000  O
  O7       1.0000 0.50549  0.57238  0.16969  Biso   1.000  O
  N1       1.0000 0.55413  0.57606  0.81360  Biso   1.000  N
  N2       1.0000 0.50158  0.65229  0.81350  Biso   1.000  N
  C1       1.0000 0.52705  0.58204  0.84600  Biso   1.000  C
  C2       1.0000 0.49881  0.55573  0.91200  Biso   1.000  C
  C3       1.0000 0.47008  0.56077  0.93320  Biso   1.000  C
  H1       1.0000 0.44960  0.54250  0.97070  Biso   1.000  H
  C4       1.0000 0.47054  0.59249  0.90020  Biso   1.000  C
  H2       1.0000 0.45040  0.59520  0.91650  Biso   1.000  H
  C5       1.0000 0.49944  0.61963  0.84490  Biso   1.000  C
  C6       1.0000 0.52807  0.61407  0.81220  Biso   1.000  C
  C7       1.0000 0.55750  0.63835  0.74640  Biso   1.000  C
  H3       1.0000 0.55900  0.66020  0.72250  Biso   1.000  H
  C8       1.0000 0.58384  0.63085  0.71670  Biso   1.000  C
  H4       1.0000 0.60350  0.64730  0.67240  Biso   1.000  H
  C9       1.0000 0.58166  0.59933  0.75130  Biso   1.000  C
  H5       1.0000 0.59990  0.59410  0.73080  Biso   1.000  H
  C10      1.0000 0.49046  0.66685  0.88300  Biso   1.000  C
  H6       1.0000 0.48290  0.65620  0.95400  Biso   1.000  H
  C11      1.0000 0.48879  0.69951  0.85780  Biso   1.000  C
  C12      1.0000 0.50074  0.71757  0.75730  Biso   1.000  C
  H7       1.0000 0.51100  0.70920  0.70350  Biso   1.000  H
  C13      1.0000 0.49777  0.74747  0.73550  Biso   1.000  C
  H8       1.0000 0.50570  0.75930  0.66610  Biso   1.000  H
  C14      1.0000 0.48336  0.76063  0.81300  Biso   1.000  C
  C15      1.0000 0.47195  0.74293  0.91300  Biso   1.000  C
  H9       1.0000 0.46210  0.75160  0.96710  Biso   1.000  H
  C16      1.0000 0.47470  0.71263  0.93600  Biso   1.000  C
  H10      1.0000 0.46690  0.70090  0.00560  Biso   1.000  H
  C17      1.0000 0.48043  0.79361  0.78910  Biso   1.000  C
  H11      1.0000 0.50290  0.81220  0.75580  Biso   1.000  H
  H12      1.0000 0.47600  0.80270  0.85830  Biso   1.000  H
  H13      1.0000 0.46050  0.78730  0.73760  Biso   1.000  H
  C18      1.0000 0.61852  0.63997  0.05060  Biso   1.000  C
  C19      1.0000 0.60013  0.59933  0.06800  Biso   1.000  C
  C20      1.0000 0.62145  0.58428  0.09290  Biso   1.000  C
  H14      1.0000 0.64680  0.59930  0.09840  Biso   1.000  H
  C21      1.0000 0.60596  0.54760  0.10960  Biso   1.000  C
  C22      1.0000 0.63038  0.53166  0.13010  Biso   1.000  C
  C23      1.0000 0.59681  0.59237  0.42330  Biso   1.000  C
  C24      1.0000 0.56750  0.55777  0.36860  Biso   1.000  C
  C25      1.0000 0.55621  0.52466  0.41950  Biso   1.000  C
  H15      1.0000 0.56720  0.52350  0.48640  Biso   1.000  H
  C26      1.0000 0.52881  0.49345  0.37210  Biso   1.000  C
  C27      1.0000 0.51610  0.45781  0.43320  Biso   1.000  C
  C28      1.0000 0.39837  0.48012  0.23030  Biso   1.000  C
  C29      1.0000 0.43668  0.51025  0.20520  Biso   1.000  C
  C30      1.0000 0.44401  0.54519  0.21760  Biso   1.000  C
  H16      1.0000 0.42530  0.54980  0.23870  Biso   1.000  H
  C31      1.0000 0.47878  0.57399  0.19940  Biso   1.000  C
  C32      1.0000 0.48539  0.61228  0.21770  Biso   1.000  C
  Dy2      1.0000 0.47890  0.47153  0.86825  Biso   1.000  Dy
  F22      1.0000 0.39263  0.34589  0.86830  Biso   1.000  F
  F23      1.0000 0.39020  0.35094  0.04130  Biso   1.000  F
  F24      1.0000 0.34695  0.34194  0.94140  Biso   1.000  F
  F25      1.0000 0.35670  0.34255  0.87440  Biso   1.000  F
  F26      1.0000 0.40294  0.34803  0.97150  Biso   1.000  F
  F27      1.0000 0.36120  0.35186  0.04420  Biso   1.000  F
  F28      1.0000 0.37515  0.49309  0.94470  Biso   1.000  F
  F29      1.0000 0.33490  0.44429  0.87180  Biso   1.000  F
  F30      1.0000 0.37616  0.48386  0.77140  Biso   1.000  F
  F31      1.0000 0.37589  0.38989  0.64623  Biso   1.000  F
  F32      1.0000 0.38992  0.41338  0.48472  Biso   1.000  F
  F33      1.0000 0.41529  0.38566  0.55120  Biso   1.000  F
  F34      1.0000 0.51979  0.56264  0.56908  Biso   1.000  F
  F35      1.0000 0.47265  0.56187  0.61830  Biso   1.000  F
  F36      1.0000 0.47414  0.53833  0.46280  Biso   1.000  F
  F37      1.0000 0.60261  0.53528  0.67229  Biso   1.000  F
  F38      1.0000 0.61306  0.54593  0.84502  Biso   1.000  F
  F39      1.0000 0.62545  0.50892  0.76430  Biso   1.000  F
  F40      1.0000 0.51033  0.37960  0.67610  Biso   1.000  F
  F41      1.0000 0.54217  0.38413  0.81690  Biso   1.000  F
  F42      1.0000 0.48655  0.36388  0.83650  Biso   1.000  F
  O8       1.0000 0.49856  0.47224  0.04985  Biso   1.000  O
  O9       1.0000 0.43315  0.41669  0.94386  Biso   1.000  O
  O10      1.0000 0.42701  0.47568  0.88898  Biso   1.000  O
  O11      1.0000 0.44353  0.43640  0.71963  Biso   1.000  O
  O12      1.0000 0.48722  0.50965  0.71705  Biso   1.000  O
  O13      1.0000 0.54208  0.50097  0.82290  Biso   1.000  O
  O14      1.0000 0.49451  0.42762  0.83031  Biso   1.000  O
  N3       1.0000 0.44587  0.42394  0.18640  Biso   1.000  N
  N4       1.0000 0.49842  0.34771  0.18650  Biso   1.000  N
  C33      1.0000 0.47295  0.41796  0.15400  Biso   1.000  C
  C34      1.0000 0.50119  0.44427  0.08800  Biso   1.000  C
  C35      1.0000 0.52992  0.43923  0.06680  Biso   1.000  C
  H17      1.0000 0.55040  0.45750  0.02930  Biso   1.000  H
  C36      1.0000 0.52946  0.40751  0.09980  Biso   1.000  C
  H18      1.0000 0.54960  0.40480  0.08350  Biso   1.000  H
  C37      1.0000 0.50056  0.38037  0.15510  Biso   1.000  C
  C38      1.0000 0.47193  0.38593  0.18780  Biso   1.000  C
  C39      1.0000 0.44250  0.36165  0.25360  Biso   1.000  C
  H19      1.0000 0.44100  0.33980  0.27750  Biso   1.000  H
  C40      1.0000 0.41616  0.36915  0.28330  Biso   1.000  C
  H20      1.0000 0.39650  0.35270  0.32760  Biso   1.000  H
  C41      1.0000 0.41834  0.40067  0.24870  Biso   1.000  C
  H21      1.0000 0.40010  0.40590  0.26920  Biso   1.000  H
  C42      1.0000 0.50954  0.33315  0.11700  Biso   1.000  C
  H22      1.0000 0.51710  0.34380  0.04600  Biso   1.000  H
  C43      1.0000 0.51121  0.30049  0.14220  Biso   1.000  C
  C44      1.0000 0.49926  0.28243  0.24270  Biso   1.000  C
  H23      1.0000 0.48900  0.29080  0.29650  Biso   1.000  H
  C45      1.0000 0.50223  0.25253  0.26450  Biso   1.000  C
  H24      1.0000 0.49430  0.24070  0.33390  Biso   1.000  H
  C46      1.0000 0.51664  0.23937  0.18700  Biso   1.000  C
  C47      1.0000 0.52805  0.25707  0.08700  Biso   1.000  C
  H25      1.0000 0.53790  0.24840  0.03290  Biso   1.000  H
  C48      1.0000 0.52530  0.28737  0.06400  Biso   1.000  C
  H26      1.0000 0.53310  0.29910  0.99440  Biso   1.000  H
  C49      1.0000 0.51957  0.20639  0.21090  Biso   1.000  C
  H27      1.0000 0.49710  0.18780  0.24420  Biso   1.000  H
  H28      1.0000 0.52400  0.19730  0.14170  Biso   1.000  H
  H29      1.0000 0.53950  0.21270  0.26240  Biso   1.000  H
  C50      1.0000 0.38148  0.36003  0.94940  Biso   1.000  C
  C51      1.0000 0.39987  0.40067  0.93200  Biso   1.000  C
  C52      1.0000 0.37855  0.41572  0.90710  Biso   1.000  C
  H30      1.0000 0.35320  0.40070  0.90160  Biso   1.000  H
  C53      1.0000 0.39404  0.45240  0.89040  Biso   1.000  C
  C54      1.0000 0.36962  0.46834  0.86990  Biso   1.000  C
  C55      1.0000 0.40319  0.40763  0.57670  Biso   1.000  C
  C56      1.0000 0.43250  0.44223  0.63140  Biso   1.000  C
  C57      1.0000 0.44379  0.47534  0.58050  Biso   1.000  C
  H31      1.0000 0.43280  0.47650  0.51360  Biso   1.000  H
  C58      1.0000 0.47119  0.50655  0.62790  Biso   1.000  C
  C59      1.0000 0.48390  0.54219  0.56680  Biso   1.000  C
  C60      1.0000 0.60163  0.51988  0.76970  Biso   1.000  C
  C61      1.0000 0.56332  0.48975  0.79480  Biso   1.000  C
  C62      1.0000 0.55599  0.45481  0.78240  Biso   1.000  C
  H32      1.0000 0.57470  0.45020  0.76130  Biso   1.000  H
  C63      1.0000 0.52122  0.42601  0.80060  Biso   1.000  C
  C64      1.0000 0.51461  0.38772  0.78230  Biso   1.000  C
  Dy3      1.0000 0.18777  0.86180  0.46509  Biso   1.000  Dy
  F43      1.0000 0.27404  0.98744  0.46503  Biso   1.000  F
  F44      1.0000 0.27647  0.98239  0.29203  Biso   1.000  F
  F45      1.0000 0.31972  0.99139  0.39193  Biso   1.000  F
  F46      1.0000 0.30997  0.99078  0.45893  Biso   1.000  F
  F47      1.0000 0.26373  0.98530  0.36183  Biso   1.000  F
  F48      1.0000 0.30547  0.98147  0.28913  Biso   1.000  F
  F49      1.0000 0.29152  0.84024  0.38863  Biso   1.000  F
  F50      1.0000 0.33177  0.88904  0.46153  Biso   1.000  F
  F51      1.0000 0.29051  0.84947  0.56193  Biso   1.000  F
  F52      1.0000 0.29078  0.94344  0.68710  Biso   1.000  F
  F53      1.0000 0.27675  0.91995  0.84861  Biso   1.000  F
  F54      1.0000 0.25138  0.94767  0.78213  Biso   1.000  F
  F55      1.0000 0.14688  0.77069  0.76425  Biso   1.000  F
  F56      1.0000 0.19402  0.77146  0.71503  Biso   1.000  F
  F57      1.0000 0.19253  0.79500  0.87053  Biso   1.000  F
  F58      1.0000 0.06406  0.79805  0.66104  Biso   1.000  F
  F59      1.0000 0.05361  0.78740  0.48831  Biso   1.000  F
  F60      1.0000 0.04122  0.82441  0.56903  Biso   1.000  F
  F61      1.0000 0.15634  0.95373  0.65723  Biso   1.000  F
  F62      1.0000 0.12450  0.94920  0.51643  Biso   1.000  F
  F63      1.0000 0.18012  0.96945  0.49683  Biso   1.000  F
  O15      1.0000 0.16811  0.86109  0.28348  Biso   1.000  O
  O16      1.0000 0.23352  0.91664  0.38947  Biso   1.000  O
  O17      1.0000 0.23966  0.85765  0.44435  Biso   1.000  O
  O18      1.0000 0.22314  0.89693  0.61370  Biso   1.000  O
  O19      1.0000 0.17945  0.82368  0.61628  Biso   1.000  O
  O20      1.0000 0.12459  0.83236  0.51043  Biso   1.000  O
  O21      1.0000 0.17216  0.90571  0.50302  Biso   1.000  O
  N5       1.0000 0.22080  0.90939  0.14693  Biso   1.000  N
  N6       1.0000 0.16825  0.98562  0.14683  Biso   1.000  N
  C65      1.0000 0.19372  0.91537  0.17933  Biso   1.000  C
  C66      1.0000 0.16548  0.88906  0.24533  Biso   1.000  C
  C67      1.0000 0.13675  0.89410  0.26653  Biso   1.000  C
  H33      1.0000 0.11627  0.87583  0.30403  Biso   1.000  H
  C68      1.0000 0.13721  0.92582  0.23353  Biso   1.000  C
  H34      1.0000 0.11707  0.92853  0.24983  Biso   1.000  H
  C69      1.0000 0.16611  0.95296  0.17823  Biso   1.000  C
  C70      1.0000 0.19474  0.94740  0.14553  Biso   1.000  C
  C71      1.0000 0.22417  0.97168  0.07973  Biso   1.000  C
  H35      1.0000 0.22567  0.99353  0.05583  Biso   1.000  H
  C72      1.0000 0.25051  0.96418  0.05003  Biso   1.000  C
  H36      1.0000 0.27017  0.98063  0.00573  Biso   1.000  H
  C73      1.0000 0.24833  0.93266  0.08463  Biso   1.000  C
  H37      1.0000 0.26657  0.92743  0.06413  Biso   1.000  H
  C74      1.0000 0.15713  0.00018  0.21633  Biso   1.000  C
  H38      1.0000 0.14957  0.98953  0.28733  Biso   1.000  H
  C75      1.0000 0.15546  0.03284  0.19113  Biso   1.000  C
  C76      1.0000 0.16741  0.05090  0.09063  Biso   1.000  C
  H39      1.0000 0.17767  0.04253  0.03683  Biso   1.000  H
  C77      1.0000 0.16444  0.08080  0.06883  Biso   1.000  C
  H40      1.0000 0.17237  0.09263  0.99943  Biso   1.000  H
  C78      1.0000 0.15003  0.09396  0.14633  Biso   1.000  C
  C79      1.0000 0.13862  0.07626  0.24633  Biso   1.000  C
  H41      1.0000 0.12877  0.08493  0.30043  Biso   1.000  H
  C80      1.0000 0.14137  0.04596  0.26933  Biso   1.000  C
  H42      1.0000 0.13357  0.03423  0.33893  Biso   1.000  H
  C81      1.0000 0.14710  0.12694  0.12243  Biso   1.000  C
  H43      1.0000 0.16957  0.14553  0.08913  Biso   1.000  H
  H44      1.0000 0.14267  0.13603  0.19163  Biso   1.000  H
  H45      1.0000 0.12717  0.12063  0.07093  Biso   1.000  H
  C82      1.0000 0.28519  0.97330  0.38393  Biso   1.000  C
  C83      1.0000 0.26680  0.93266  0.40133  Biso   1.000  C
  C84      1.0000 0.28812  0.91761  0.42623  Biso   1.000  C
  H46      1.0000 0.31347  0.93263  0.43173  Biso   1.000  H
  C85      1.0000 0.27263  0.88093  0.44293  Biso   1.000  C
  C86      1.0000 0.29705  0.86499  0.46343  Biso   1.000  C
  C87      1.0000 0.26348  0.92570  0.75663  Biso   1.000  C
  C88      1.0000 0.23417  0.89110  0.70193  Biso   1.000  C
  C89      1.0000 0.22288  0.85799  0.75283  Biso   1.000  C
  H47      1.0000 0.23387  0.85683  0.81973  Biso   1.000  H
  C90      1.0000 0.19548  0.82678  0.70543  Biso   1.000  C
  C91      1.0000 0.18277  0.79114  0.76653  Biso   1.000  C
  C92      1.0000 0.06504  0.81345  0.56363  Biso   1.000  C
  C93      1.0000 0.10335  0.84358  0.53853  Biso   1.000  C
  C94      1.0000 0.11068  0.87852  0.55093  Biso   1.000  C
  H48      1.0000 0.09197  0.88313  0.57203  Biso   1.000  H
  C95      1.0000 0.14545  0.90732  0.53273  Biso   1.000  C
  C96      1.0000 0.15206  0.94561  0.55103  Biso   1.000  C
  Dy4      1.0000 0.14556  0.80487  0.20158  Biso   1.000  Dy
  F64      1.0000 0.05930  0.67922  0.20163  Biso   1.000  F
  F65      1.0000 0.05687  0.68427  0.37463  Biso   1.000  F
  F66      1.0000 0.01362  0.67527  0.27473  Biso   1.000  F
  F67      1.0000 0.02337  0.67588  0.20773  Biso   1.000  F
  F68      1.0000 0.06961  0.68136  0.30483  Biso   1.000  F
  F69      1.0000 0.02787  0.68519  0.37753  Biso   1.000  F
  F70      1.0000 0.04182  0.82642  0.27803  Biso   1.000  F
  F71      1.0000 0.00157  0.77762  0.20513  Biso   1.000  F
  F72      1.0000 0.04283  0.81719  0.10473  Biso   1.000  F
  F73      1.0000 0.04256  0.72322  0.97956  Biso   1.000  F
  F74      1.0000 0.05659  0.74671  0.81805  Biso   1.000  F
  F75      1.0000 0.08196  0.71899  0.88453  Biso   1.000  F
  F76      1.0000 0.18646  0.89597  0.90241  Biso   1.000  F
  F77      1.0000 0.13932  0.89520  0.95163  Biso   1.000  F
  F78      1.0000 0.14081  0.87166  0.79613  Biso   1.000  F
  F79      1.0000 0.26928  0.86861  0.00562  Biso   1.000  F
  F80      1.0000 0.27973  0.87926  0.17835  Biso   1.000  F
  F81      1.0000 0.29212  0.84225  0.09763  Biso   1.000  F
  F82      1.0000 0.17700  0.71293  0.00943  Biso   1.000  F
  F83      1.0000 0.20884  0.71746  0.15023  Biso   1.000  F
  F84      1.0000 0.15322  0.69721  0.16983  Biso   1.000  F
  O22      1.0000 0.16523  0.80557  0.38318  Biso   1.000  O
  O23      1.0000 0.09982  0.75002  0.27719  Biso   1.000  O
  O24      1.0000 0.09368  0.80901  0.22231  Biso   1.000  O
  O25      1.0000 0.11020  0.76973  0.05296  Biso   1.000  O
  O26      1.0000 0.15389  0.84298  0.05038  Biso   1.000  O
  O27      1.0000 0.20875  0.83430  0.15623  Biso   1.000  O
  O28      1.0000 0.16118  0.76095  0.16364  Biso   1.000  O
  N7       1.0000 0.11254  0.75727  0.51973  Biso   1.000  N
  N8       1.0000 0.16509  0.68104  0.51983  Biso   1.000  N
  C97      1.0000 0.13962  0.75129  0.48733  Biso   1.000  C
  C98      1.0000 0.16786  0.77760  0.42133  Biso   1.000  C
  C99      1.0000 0.19659  0.77256  0.40013  Biso   1.000  C
  H49      1.0000 0.21707  0.79083  0.36263  Biso   1.000  H
  C100     1.0000 0.19613  0.74084  0.43313  Biso   1.000  C
  H50      1.0000 0.21627  0.73813  0.41683  Biso   1.000  H
  C101     1.0000 0.16723  0.71370  0.48843  Biso   1.000  C
  C102     1.0000 0.13860  0.71926  0.52113  Biso   1.000  C
  C103     1.0000 0.10917  0.69498  0.58693  Biso   1.000  C
  H51      1.0000 0.10767  0.67313  0.61083  Biso   1.000  H
  C104     1.0000 0.08283  0.70248  0.61663  Biso   1.000  C
  H52      1.0000 0.06317  0.68603  0.66093  Biso   1.000  H
  C105     1.0000 0.08501  0.73400  0.58203  Biso   1.000  C
  H53      1.0000 0.06677  0.73923  0.60253  Biso   1.000  H
  C106     1.0000 0.17621  0.66648  0.45033  Biso   1.000  C
  H54      1.0000 0.18377  0.67713  0.37933  Biso   1.000  H
  C107     1.0000 0.17788  0.63382  0.47553  Biso   1.000  C
  C108     1.0000 0.16593  0.61576  0.57603  Biso   1.000  C
  H55      1.0000 0.15567  0.62413  0.62983  Biso   1.000  H
  C109     1.0000 0.16890  0.58586  0.59783  Biso   1.000  C
  H56      1.0000 0.16097  0.57403  0.66723  Biso   1.000  H
  C110     1.0000 0.18331  0.57270  0.52033  Biso   1.000  C
  C111     1.0000 0.19472  0.59040  0.42033  Biso   1.000  C
  H57      1.0000 0.20457  0.58173  0.36623  Biso   1.000  H
  C112     1.0000 0.19197  0.62070  0.39733  Biso   1.000  C
  H58      1.0000 0.19977  0.63243  0.32773  Biso   1.000  H
  C113     1.0000 0.18624  0.53972  0.54423  Biso   1.000  C
  H59      1.0000 0.16377  0.52113  0.57753  Biso   1.000  H
  H60      1.0000 0.19067  0.53063  0.47503  Biso   1.000  H
  H61      1.0000 0.20617  0.54603  0.59573  Biso   1.000  H
  C114     1.0000 0.04815  0.69336  0.28273  Biso   1.000  C
  C115     1.0000 0.06654  0.73400  0.26533  Biso   1.000  C
  C116     1.0000 0.04522  0.74905  0.24043  Biso   1.000  C
  H62      1.0000 0.01987  0.73403  0.23493  Biso   1.000  H
  C117     1.0000 0.06071  0.78573  0.22373  Biso   1.000  C
  C118     1.0000 0.03629  0.80167  0.20323  Biso   1.000  C
  C119     1.0000 0.06986  0.74096  0.91003  Biso   1.000  C
  C120     1.0000 0.09917  0.77556  0.96473  Biso   1.000  C
  C121     1.0000 0.11046  0.80867  0.91383  Biso   1.000  C
  H63      1.0000 0.09947  0.80983  0.84693  Biso   1.000  H
  C122     1.0000 0.13786  0.83988  0.96123  Biso   1.000  C
  C123     1.0000 0.15057  0.87552  0.90013  Biso   1.000  C
  C124     1.0000 0.26830  0.85321  0.10303  Biso   1.000  C
  C125     1.0000 0.22999  0.82308  0.12813  Biso   1.000  C
  C126     1.0000 0.22266  0.78814  0.11573  Biso   1.000  C
  H64      1.0000 0.24137  0.78353  0.09463  Biso   1.000  H
  C127     1.0000 0.18789  0.75934  0.13393  Biso   1.000  C
  C128     1.0000 0.18128  0.72105  0.11563  Biso   1.000  C
  Dy5      1.0000 0.85444  0.19513  0.79842  Biso   1.000  Dy
  F85      1.0000 0.94070  0.32078  0.79837  Biso   1.000  F
  F86      1.0000 0.94313  0.31573  0.62537  Biso   1.000  F
  F87      1.0000 0.98638  0.32473  0.72527  Biso   1.000  F
  F88      1.0000 0.97663  0.32412  0.79227  Biso   1.000  F
  F89      1.0000 0.93039  0.31864  0.69517  Biso   1.000  F
  F90      1.0000 0.97213  0.31481  0.62247  Biso   1.000  F
  F91      1.0000 0.95818  0.17358  0.72197  Biso   1.000  F
  F92      1.0000 0.99843  0.22238  0.79487  Biso   1.000  F
  F93      1.0000 0.95717  0.18281  0.89527  Biso   1.000  F
  F94      1.0000 0.95744  0.27678  0.02044  Biso   1.000  F
  F95      1.0000 0.94341  0.25329  0.18195  Biso   1.000  F
  F96      1.0000 0.91804  0.28101  0.11547  Biso   1.000  F
  F97      1.0000 0.81354  0.10403  0.09759  Biso   1.000  F
  F98      1.0000 0.86068  0.10480  0.04837  Biso   1.000  F
  F99      1.0000 0.85919  0.12834  0.20387  Biso   1.000  F
  F100     1.0000 0.73072  0.13139  0.99438  Biso   1.000  F
  F101     1.0000 0.72027  0.12074  0.82165  Biso   1.000  F
  F102     1.0000 0.70788  0.15775  0.90237  Biso   1.000  F
  F103     1.0000 0.82300  0.28707  0.99057  Biso   1.000  F
  F104     1.0000 0.79116  0.28254  0.84977  Biso   1.000  F
  F105     1.0000 0.84678  0.30279  0.83017  Biso   1.000  F
  O29      1.0000 0.83477  0.19443  0.61682  Biso   1.000  O
  O30      1.0000 0.90018  0.24998  0.72281  Biso   1.000  O
  O31      1.0000 0.90632  0.19099  0.77769  Biso   1.000  O
  O32      1.0000 0.88980  0.23027  0.94704  Biso   1.000  O
  O33      1.0000 0.84611  0.15702  0.94962  Biso   1.000  O
  O34      1.0000 0.79125  0.16570  0.84377  Biso   1.000  O
  O35      1.0000 0.83882  0.23905  0.83636  Biso   1.000  O
  N9       1.0000 0.88746  0.24273  0.48027  Biso   1.000  N
  N10      1.0000 0.83491  0.31896  0.48017  Biso   1.000  N
  C129     1.0000 0.86038  0.24871  0.51267  Biso   1.000  C
  C130     1.0000 0.83214  0.22240  0.57867  Biso   1.000  C
  C131     1.0000 0.80341  0.22744  0.59987  Biso   1.000  C
  H65      1.0000 0.78293  0.20917  0.63737  Biso   1.000  H
  C132     1.0000 0.80387  0.25916  0.56687  Biso   1.000  C
  H66      1.0000 0.78373  0.26187  0.58317  Biso   1.000  H
  C133     1.0000 0.83277  0.28630  0.51157  Biso   1.000  C
  C134     1.0000 0.86140  0.28074  0.47887  Biso   1.000  C
  C135     1.0000 0.89083  0.30502  0.41307  Biso   1.000  C
  H67      1.0000 0.89233  0.32687  0.38917  Biso   1.000  H
  C136     1.0000 0.91717  0.29752  0.38337  Biso   1.000  C
  H68      1.0000 0.93683  0.31397  0.33907  Biso   1.000  H
  C137     1.0000 0.91499  0.26600  0.41797  Biso   1.000  C
  H69      1.0000 0.93323  0.26077  0.39747  Biso   1.000  H
  C138     1.0000 0.82379  0.33352  0.54967  Biso   1.000  C
  H70      1.0000 0.81623  0.32287  0.62067  Biso   1.000  H
  C139     1.0000 0.82212  0.36618  0.52447  Biso   1.000  C
  C140     1.0000 0.83407  0.38424  0.42397  Biso   1.000  C
  H71      1.0000 0.84433  0.37587  0.37017  Biso   1.000  H
  C141     1.0000 0.83110  0.41414  0.40217  Biso   1.000  C
  H72      1.0000 0.83903  0.42597  0.33277  Biso   1.000  H
  C142     1.0000 0.81669  0.42730  0.47967  Biso   1.000  C
  C143     1.0000 0.80528  0.40960  0.57967  Biso   1.000  C
  H73      1.0000 0.79543  0.41827  0.63377  Biso   1.000  H
  C144     1.0000 0.80803  0.37930  0.60267  Biso   1.000  C
  H74      1.0000 0.80023  0.36757  0.67227  Biso   1.000  H
  C145     1.0000 0.81376  0.46028  0.45577  Biso   1.000  C
  H75      1.0000 0.83623  0.47887  0.42247  Biso   1.000  H
  H76      1.0000 0.80933  0.46937  0.52497  Biso   1.000  H
  H77      1.0000 0.79383  0.45397  0.40427  Biso   1.000  H
  C146     1.0000 0.95185  0.30664  0.71727  Biso   1.000  C
  C147     1.0000 0.93346  0.26600  0.73467  Biso   1.000  C
  C148     1.0000 0.95478  0.25095  0.75957  Biso   1.000  C
  H78      1.0000 0.98013  0.26597  0.76507  Biso   1.000  H
  C149     1.0000 0.93929  0.21427  0.77627  Biso   1.000  C
  C150     1.0000 0.96371  0.19833  0.79677  Biso   1.000  C
  C151     1.0000 0.93014  0.25904  0.08997  Biso   1.000  C
  C152     1.0000 0.90083  0.22444  0.03527  Biso   1.000  C
  C153     1.0000 0.88954  0.19133  0.08617  Biso   1.000  C
  H79      1.0000 0.90053  0.19017  0.15307  Biso   1.000  H
  C154     1.0000 0.86214  0.16012  0.03877  Biso   1.000  C
  C155     1.0000 0.84943  0.12448  0.09987  Biso   1.000  C
  C156     1.0000 0.73170  0.14679  0.89697  Biso   1.000  C
  C157     1.0000 0.77001  0.17692  0.87187  Biso   1.000  C
  C158     1.0000 0.77734  0.21186  0.88427  Biso   1.000  C
  H80      1.0000 0.75863  0.21647  0.90537  Biso   1.000  H
  C159     1.0000 0.81211  0.24066  0.86607  Biso   1.000  C
  C160     1.0000 0.81872  0.27895  0.88437  Biso   1.000  C
  Dy6      1.0000 0.81223  0.13820  0.53491  Biso   1.000  Dy
  F106     1.0000 0.72596  0.01256  0.53497  Biso   1.000  F
  F107     1.0000 0.72353  0.01761  0.70797  Biso   1.000  F
  F108     1.0000 0.68028  0.00861  0.60807  Biso   1.000  F
  F109     1.0000 0.69003  0.00922  0.54107  Biso   1.000  F
  F110     1.0000 0.73627  0.01470  0.63817  Biso   1.000  F
  F111     1.0000 0.69453  0.01853  0.71087  Biso   1.000  F
  F112     1.0000 0.70848  0.15976  0.61137  Biso   1.000  F
  F113     1.0000 0.66823  0.11096  0.53847  Biso   1.000  F
  F114     1.0000 0.70949  0.15053  0.43807  Biso   1.000  F
  F115     1.0000 0.70922  0.05656  0.31290  Biso   1.000  F
  F116     1.0000 0.72325  0.08005  0.15139  Biso   1.000  F
  F117     1.0000 0.74862  0.05233  0.21787  Biso   1.000  F
  F118     1.0000 0.85312  0.22931  0.23575  Biso   1.000  F
  F119     1.0000 0.80598  0.22854  0.28497  Biso   1.000  F
  F120     1.0000 0.80747  0.20500  0.12947  Biso   1.000  F
  F121     1.0000 0.93594  0.20195  0.33896  Biso   1.000  F
  F122     1.0000 0.94639  0.21260  0.51169  Biso   1.000  F
  F123     1.0000 0.95878  0.17559  0.43097  Biso   1.000  F
  F124     1.0000 0.84366  0.04627  0.34277  Biso   1.000  F
  F125     1.0000 0.87550  0.05080  0.48357  Biso   1.000  F
  F126     1.0000 0.81988  0.03055  0.50317  Biso   1.000  F
  O36      1.0000 0.83189  0.13891  0.71652  Biso   1.000  O
  O37      1.0000 0.76648  0.08336  0.61053  Biso   1.000  O
  O38      1.0000 0.76034  0.14235  0.55565  Biso   1.000  O
  O39      1.0000 0.77686  0.10307  0.38630  Biso   1.000  O
  O40      1.0000 0.82055  0.17632  0.38372  Biso   1.000  O
  O41      1.0000 0.87541  0.16764  0.48957  Biso   1.000  O
  O42      1.0000 0.82784  0.09429  0.49698  Biso   1.000  O
  N11      1.0000 0.77920  0.09061  0.85307  Biso   1.000  N
  N12      1.0000 0.83175  0.01438  0.85317  Biso   1.000  N
  C161     1.0000 0.80628  0.08463  0.82067  Biso   1.000  C
  C162     1.0000 0.83452  0.11094  0.75467  Biso   1.000  C
  C163     1.0000 0.86325  0.10590  0.73347  Biso   1.000  C
  H81      1.0000 0.88373  0.12417  0.69597  Biso   1.000  H
  C164     1.0000 0.86279  0.07418  0.76647  Biso   1.000  C
  H82      1.0000 0.88293  0.07147  0.75017  Biso   1.000  H
  C165     1.0000 0.83389  0.04704  0.82177  Biso   1.000  C
  C166     1.0000 0.80526  0.05260  0.85447  Biso   1.000  C
  C167     1.0000 0.77583  0.02832  0.92027  Biso   1.000  C
  H83      1.0000 0.77433  0.00647  0.94417  Biso   1.000  H
  C168     1.0000 0.74949  0.03582  0.94997  Biso   1.000  C
  H84      1.0000 0.72983  0.01937  0.99427  Biso   1.000  H
  C169     1.0000 0.75167  0.06734  0.91537  Biso   1.000  C
  H85      1.0000 0.73343  0.07257  0.93587  Biso   1.000  H
  C170     1.0000 0.84287  0.99982  0.78367  Biso   1.000  C
  H86      1.0000 0.85043  0.01047  0.71267  Biso   1.000  H
  C171     1.0000 0.84454  0.96716  0.80887  Biso   1.000  C
  C172     1.0000 0.83259  0.94910  0.90937  Biso   1.000  C
  H87      1.0000 0.82233  0.95747  0.96317  Biso   1.000  H
  C173     1.0000 0.83556  0.91920  0.93117  Biso   1.000  C
  H88      1.0000 0.82763  0.90737  0.00057  Biso   1.000  H
  C174     1.0000 0.84997  0.90604  0.85367  Biso   1.000  C
  C175     1.0000 0.86138  0.92374  0.75367  Biso   1.000  C
  H89      1.0000 0.87123  0.91507  0.69957  Biso   1.000  H
  C176     1.0000 0.85863  0.95404  0.73067  Biso   1.000  C
  H90      1.0000 0.86643  0.96577  0.66107  Biso   1.000  H
  C177     1.0000 0.85290  0.87306  0.87757  Biso   1.000  C
  H91      1.0000 0.83043  0.85447  0.91087  Biso   1.000  H
  H92      1.0000 0.85733  0.86397  0.80837  Biso   1.000  H
  H93      1.0000 0.87283  0.87937  0.92907  Biso   1.000  H
  C178     1.0000 0.71481  0.02670  0.61607  Biso   1.000  C
  C179     1.0000 0.73320  0.06734  0.59867  Biso   1.000  C
  C180     1.0000 0.71188  0.08239  0.57377  Biso   1.000  C
  H94      1.0000 0.68653  0.06737  0.56827  Biso   1.000  H
  C181     1.0000 0.72737  0.11907  0.55707  Biso   1.000  C
  C182     1.0000 0.70295  0.13501  0.53657  Biso   1.000  C
  C183     1.0000 0.73652  0.07430  0.24337  Biso   1.000  C
  C184     1.0000 0.76583  0.10890  0.29807  Biso   1.000  C
  C185     1.0000 0.77712  0.14201  0.24717  Biso   1.000  C
  H95      1.0000 0.76613  0.14317  0.18027  Biso   1.000  H
  C186     1.0000 0.80452  0.17322  0.29457  Biso   1.000  C
  C187     1.0000 0.81723  0.20886  0.23347  Biso   1.000  C
  C188     1.0000 0.93496  0.18655  0.43637  Biso   1.000  C
  C189     1.0000 0.89665  0.15642  0.46147  Biso   1.000  C
  C190     1.0000 0.88932  0.12148  0.44907  Biso   1.000  C
  H96      1.0000 0.90803  0.11687  0.42797  Biso   1.000  H
  C191     1.0000 0.85455  0.09268  0.46727  Biso   1.000  C
  C192     1.0000 0.84794  0.05439  0.44897  Biso   1.000  C
  Dy7      1.0000 0.47153  0.99263  0.13175  Biso   1.000  Dy
  F127     1.0000 0.34589  0.95326  0.13170  Biso   1.000  F
  F128     1.0000 0.35094  0.96074  0.95870  Biso   1.000  F
  F129     1.0000 0.34194  0.99499  0.05860  Biso   1.000  F
  F130     1.0000 0.34255  0.98585  0.12560  Biso   1.000  F
  F131     1.0000 0.34803  0.94509  0.02850  Biso   1.000  F
  F132     1.0000 0.35186  0.99066  0.95580  Biso   1.000  F
  F133     1.0000 0.49309  0.11794  0.05530  Biso   1.000  F
  F134     1.0000 0.44429  0.10939  0.12820  Biso   1.000  F
  F135     1.0000 0.48386  0.10770  0.22860  Biso   1.000  F
  F136     1.0000 0.38989  0.01400  0.35377  Biso   1.000  F
  F137     1.0000 0.41338  0.02346  0.51528  Biso   1.000  F
  F138     1.0000 0.38566  0.97037  0.44880  Biso   1.000  F
  F139     1.0000 0.56264  0.04285  0.43092  Biso   1.000  F
  F140     1.0000 0.56187  0.08922  0.38170  Biso   1.000  F
  F141     1.0000 0.53833  0.06419  0.53720  Biso   1.000  F
  F142     1.0000 0.53528  0.93267  0.32771  Biso   1.000  F
  F143     1.0000 0.54593  0.93287  0.15498  Biso   1.000  F
  F144     1.0000 0.50892  0.88347  0.23570  Biso   1.000  F
  F145     1.0000 0.37960  0.86927  0.32390  Biso   1.000  F
  F146     1.0000 0.38413  0.84196  0.18310  Biso   1.000  F
  F147     1.0000 0.36388  0.87733  0.16350  Biso   1.000  F
  O43      1.0000 0.47224  0.97368  0.95015  Biso   1.000  O
  O44      1.0000 0.41669  0.98354  0.05614  Biso   1.000  O
  O45      1.0000 0.47568  0.04867  0.11102  Biso   1.000  O
  O46      1.0000 0.43640  0.99287  0.28037  Biso   1.000  O
  O47      1.0000 0.50965  0.02243  0.28295  Biso   1.000  O
  O48      1.0000 0.50097  0.95889  0.17710  Biso   1.000  O
  O49      1.0000 0.42762  0.93311  0.16969  Biso   1.000  O
  N13      1.0000 0.42394  0.97807  0.81360  Biso   1.000  N
  N14      1.0000 0.34771  0.84929  0.81350  Biso   1.000  N
  C193     1.0000 0.41796  0.94501  0.84600  Biso   1.000  C
  C194     1.0000 0.44427  0.94308  0.91200  Biso   1.000  C
  C195     1.0000 0.43923  0.90931  0.93320  Biso   1.000  C
  H97      1.0000 0.45750  0.90710  0.97070  Biso   1.000  H
  C196     1.0000 0.40751  0.87805  0.90020  Biso   1.000  C
  H98      1.0000 0.40480  0.85520  0.91650  Biso   1.000  H
  C197     1.0000 0.38037  0.87981  0.84490  Biso   1.000  C
  C198     1.0000 0.38593  0.91400  0.81220  Biso   1.000  C
  C199     1.0000 0.36165  0.91915  0.74640  Biso   1.000  C
  H99      1.0000 0.33980  0.89880  0.72250  Biso   1.000  H
  C200     1.0000 0.36915  0.95299  0.71670  Biso   1.000  C
  H100     1.0000 0.35270  0.95620  0.67240  Biso   1.000  H
  C201     1.0000 0.40067  0.98233  0.75130  Biso   1.000  C
  H101     1.0000 0.40590  0.00580  0.73080  Biso   1.000  H
  C202     1.0000 0.33315  0.82361  0.88300  Biso   1.000  C
  H102     1.0000 0.34380  0.82670  0.95400  Biso   1.000  H
  C203     1.0000 0.30049  0.78928  0.85780  Biso   1.000  C
  C204     1.0000 0.28243  0.78317  0.75730  Biso   1.000  C
  H103     1.0000 0.29080  0.80180  0.70350  Biso   1.000  H
  C205     1.0000 0.25253  0.75030  0.73550  Biso   1.000  C
  H104     1.0000 0.24070  0.74640  0.66610  Biso   1.000  H
  C206     1.0000 0.23937  0.72273  0.81300  Biso   1.000  C
  C207     1.0000 0.25707  0.72902  0.91300  Biso   1.000  C
  H105     1.0000 0.24840  0.71050  0.96710  Biso   1.000  H
  C208     1.0000 0.28737  0.76207  0.93600  Biso   1.000  C
  H106     1.0000 0.29910  0.76600  0.00560  Biso   1.000  H
  C209     1.0000 0.20639  0.68682  0.78910  Biso   1.000  C
  H107     1.0000 0.18780  0.69070  0.75580  Biso   1.000  H
  H108     1.0000 0.19730  0.67330  0.85830  Biso   1.000  H
  H109     1.0000 0.21270  0.67320  0.73760  Biso   1.000  H
  C210     1.0000 0.36003  0.97855  0.05060  Biso   1.000  C
  C211     1.0000 0.40067  0.00080  0.06800  Biso   1.000  C
  C212     1.0000 0.41572  0.03717  0.09290  Biso   1.000  C
  H110     1.0000 0.40070  0.04750  0.09840  Biso   1.000  H
  C213     1.0000 0.45240  0.05836  0.10960  Biso   1.000  C
  C214     1.0000 0.46834  0.09872  0.13010  Biso   1.000  C
  C215     1.0000 0.40763  0.00444  0.42330  Biso   1.000  C
  C216     1.0000 0.44223  0.00973  0.36860  Biso   1.000  C
  C217     1.0000 0.47534  0.03155  0.41950  Biso   1.000  C
  H111     1.0000 0.47650  0.04370  0.48640  Biso   1.000  H
  C218     1.0000 0.50655  0.03536  0.37210  Biso   1.000  C
  C219     1.0000 0.54219  0.05829  0.43320  Biso   1.000  C
  C220     1.0000 0.51988  0.91825  0.23030  Biso   1.000  C
  C221     1.0000 0.48975  0.92643  0.20520  Biso   1.000  C
  C222     1.0000 0.45481  0.89882  0.21760  Biso   1.000  C
  H112     1.0000 0.45020  0.87550  0.23870  Biso   1.000  H
  C223     1.0000 0.42601  0.90479  0.19940  Biso   1.000  C
  C224     1.0000 0.38772  0.87311  0.21770  Biso   1.000  C
  Dy8      1.0000 0.52847  0.00737  0.86825  Biso   1.000  Dy
  F148     1.0000 0.65411  0.04674  0.86830  Biso   1.000  F
  F149     1.0000 0.64906  0.03926  0.04130  Biso   1.000  F
  F150     1.0000 0.65806  0.00501  0.94140  Biso   1.000  F
  F151     1.0000 0.65745  0.01415  0.87440  Biso   1.000  F
  F152     1.0000 0.65197  0.05491  0.97150  Biso   1.000  F
  F153     1.0000 0.64814  0.00934  0.04420  Biso   1.000  F
  F154     1.0000 0.50691  0.88206  0.94470  Biso   1.000  F
  F155     1.0000 0.55571  0.89061  0.87180  Biso   1.000  F
  F156     1.0000 0.51614  0.89230  0.77140  Biso   1.000  F
  F157     1.0000 0.61011  0.98600  0.64623  Biso   1.000  F
  F158     1.0000 0.58662  0.97654  0.48472  Biso   1.000  F
  F159     1.0000 0.61434  0.02963  0.55120  Biso   1.000  F
  F160     1.0000 0.43736  0.95715  0.56908  Biso   1.000  F
  F161     1.0000 0.43813  0.91078  0.61830  Biso   1.000  F
  F162     1.0000 0.46167  0.93581  0.46280  Biso   1.000  F
  F163     1.0000 0.46472  0.06733  0.67229  Biso   1.000  F
  F164     1.0000 0.45407  0.06713  0.84502  Biso   1.000  F
  F165     1.0000 0.49108  0.11653  0.76430  Biso   1.000  F
  F166     1.0000 0.62040  0.13073  0.67610  Biso   1.000  F
  F167     1.0000 0.61587  0.15804  0.81690  Biso   1.000  F
  F168     1.0000 0.63612  0.12267  0.83650  Biso   1.000  F
  O50      1.0000 0.52776  0.02632  0.04985  Biso   1.000  O
  O51      1.0000 0.58331  0.01646  0.94386  Biso   1.000  O
  O52      1.0000 0.52432  0.95133  0.88898  Biso   1.000  O
  O53      1.0000 0.56360  0.00713  0.71963  Biso   1.000  O
  O54      1.0000 0.49035  0.97757  0.71705  Biso   1.000  O
  O55      1.0000 0.49903  0.04111  0.82290  Biso   1.000  O
  O56      1.0000 0.57238  0.06689  0.83031  Biso   1.000  O
  N15      1.0000 0.57606  0.02193  0.18640  Biso   1.000  N
  N16      1.0000 0.65229  0.15071  0.18650  Biso   1.000  N
  C225     1.0000 0.58204  0.05499  0.15400  Biso   1.000  C
  C226     1.0000 0.55573  0.05692  0.08800  Biso   1.000  C
  C227     1.0000 0.56077  0.09069  0.06680  Biso   1.000  C
  H113     1.0000 0.54250  0.09290  0.02930  Biso   1.000  H
  C228     1.0000 0.59249  0.12195  0.09980  Biso   1.000  C
  H114     1.0000 0.59520  0.14480  0.08350  Biso   1.000  H
  C229     1.0000 0.61963  0.12019  0.15510  Biso   1.000  C
  C230     1.0000 0.61407  0.08600  0.18780  Biso   1.000  C
  C231     1.0000 0.63835  0.08085  0.25360  Biso   1.000  C
  H115     1.0000 0.66020  0.10120  0.27750  Biso   1.000  H
  C232     1.0000 0.63085  0.04701  0.28330  Biso   1.000  C
  H116     1.0000 0.64730  0.04380  0.32760  Biso   1.000  H
  C233     1.0000 0.59933  0.01767  0.24870  Biso   1.000  C
  H117     1.0000 0.59410  0.99420  0.26920  Biso   1.000  H
  C234     1.0000 0.66685  0.17639  0.11700  Biso   1.000  C
  H118     1.0000 0.65620  0.17330  0.04600  Biso   1.000  H
  C235     1.0000 0.69951  0.21072  0.14220  Biso   1.000  C
  C236     1.0000 0.71757  0.21683  0.24270  Biso   1.000  C
  H119     1.0000 0.70920  0.19820  0.29650  Biso   1.000  H
  C237     1.0000 0.74747  0.24970  0.26450  Biso   1.000  C
  H120     1.0000 0.75930  0.25360  0.33390  Biso   1.000  H
  C238     1.0000 0.76063  0.27727  0.18700  Biso   1.000  C
  C239     1.0000 0.74293  0.27098  0.08700  Biso   1.000  C
  H121     1.0000 0.75160  0.28950  0.03290  Biso   1.000  H
  C240     1.0000 0.71263  0.23793  0.06400  Biso   1.000  C
  H122     1.0000 0.70090  0.23400  0.99440  Biso   1.000  H
  C241     1.0000 0.79361  0.31318  0.21090  Biso   1.000  C
  H123     1.0000 0.81220  0.30930  0.24420  Biso   1.000  H
  H124     1.0000 0.80270  0.32670  0.14170  Biso   1.000  H
  H125     1.0000 0.78730  0.32680  0.26240  Biso   1.000  H
  C242     1.0000 0.63997  0.02145  0.94940  Biso   1.000  C
  C243     1.0000 0.59933  0.99920  0.93200  Biso   1.000  C
  C244     1.0000 0.58428  0.96283  0.90710  Biso   1.000  C
  H126     1.0000 0.59930  0.95250  0.90160  Biso   1.000  H
  C245     1.0000 0.54760  0.94164  0.89040  Biso   1.000  C
  C246     1.0000 0.53166  0.90128  0.86990  Biso   1.000  C
  C247     1.0000 0.59237  0.99556  0.57670  Biso   1.000  C
  C248     1.0000 0.55777  0.99027  0.63140  Biso   1.000  C
  C249     1.0000 0.52466  0.96845  0.58050  Biso   1.000  C
  H127     1.0000 0.52350  0.95630  0.51360  Biso   1.000  H
  C250     1.0000 0.49345  0.96464  0.62790  Biso   1.000  C
  C251     1.0000 0.45781  0.94171  0.56680  Biso   1.000  C
  C252     1.0000 0.48012  0.08175  0.76970  Biso   1.000  C
  C253     1.0000 0.51025  0.07357  0.79480  Biso   1.000  C
  C254     1.0000 0.54519  0.10118  0.78240  Biso   1.000  C
  H128     1.0000 0.54980  0.12450  0.76130  Biso   1.000  H
  C255     1.0000 0.57399  0.09521  0.80060  Biso   1.000  C
  C256     1.0000 0.61228  0.12689  0.78230  Biso   1.000  C
  Dy9      1.0000 0.13820  0.32597  0.46509  Biso   1.000  Dy
  F169     1.0000 0.01256  0.28659  0.46503  Biso   1.000  F
  F170     1.0000 0.01761  0.29407  0.29203  Biso   1.000  F
  F171     1.0000 0.00861  0.32832  0.39193  Biso   1.000  F
  F172     1.0000 0.00922  0.31918  0.45893  Biso   1.000  F
  F173     1.0000 0.01470  0.27842  0.36183  Biso   1.000  F
  F174     1.0000 0.01853  0.32399  0.28913  Biso   1.000  F
  F175     1.0000 0.15976  0.45127  0.38863  Biso   1.000  F
  F176     1.0000 0.11096  0.44272  0.46153  Biso   1.000  F
  F177     1.0000 0.15053  0.44103  0.56193  Biso   1.000  F
  F178     1.0000 0.05656  0.34733  0.68710  Biso   1.000  F
  F179     1.0000 0.08005  0.35679  0.84861  Biso   1.000  F
  F180     1.0000 0.05233  0.30370  0.78213  Biso   1.000  F
  F181     1.0000 0.22931  0.37618  0.76425  Biso   1.000  F
  F182     1.0000 0.22854  0.42255  0.71503  Biso   1.000  F
  F183     1.0000 0.20500  0.39752  0.87053  Biso   1.000  F
  F184     1.0000 0.20195  0.26600  0.66104  Biso   1.000  F
  F185     1.0000 0.21260  0.26620  0.48831  Biso   1.000  F
  F186     1.0000 0.17559  0.21680  0.56903  Biso   1.000  F
  F187     1.0000 0.04627  0.20260  0.65723  Biso   1.000  F
  F188     1.0000 0.05080  0.17529  0.51643  Biso   1.000  F
  F189     1.0000 0.03055  0.21066  0.49683  Biso   1.000  F
  O57      1.0000 0.13891  0.30701  0.28348  Biso   1.000  O
  O58      1.0000 0.08336  0.31687  0.38947  Biso   1.000  O
  O59      1.0000 0.14235  0.38200  0.44435  Biso   1.000  O
  O60      1.0000 0.10307  0.32620  0.61370  Biso   1.000  O
  O61      1.0000 0.17632  0.35576  0.61628  Biso   1.000  O
  O62      1.0000 0.16764  0.29222  0.51043  Biso   1.000  O
  O63      1.0000 0.09429  0.26644  0.50302  Biso   1.000  O
  N17      1.0000 0.09061  0.31140  0.14693  Biso   1.000  N
  N18      1.0000 0.01438  0.18262  0.14683  Biso   1.000  N
  C257     1.0000 0.08463  0.27834  0.17933  Biso   1.000  C
  C258     1.0000 0.11094  0.27641  0.24533  Biso   1.000  C
  C259     1.0000 0.10590  0.24264  0.26653  Biso   1.000  C
  H129     1.0000 0.12417  0.24043  0.30403  Biso   1.000  H
  C260     1.0000 0.07418  0.21138  0.23353  Biso   1.000  C
  H130     1.0000 0.07147  0.18853  0.24983  Biso   1.000  H
  C261     1.0000 0.04704  0.21314  0.17823  Biso   1.000  C
  C262     1.0000 0.05260  0.24733  0.14553  Biso   1.000  C
  C263     1.0000 0.02832  0.25248  0.07973  Biso   1.000  C
  H131     1.0000 0.00647  0.23213  0.05583  Biso   1.000  H
  C264     1.0000 0.03582  0.28632  0.05003  Biso   1.000  C
  H132     1.0000 0.01937  0.28953  0.00573  Biso   1.000  H
  C265     1.0000 0.06734  0.31566  0.08463  Biso   1.000  C
  H133     1.0000 0.07257  0.33913  0.06413  Biso   1.000  H
  C266     1.0000 0.99982  0.15694  0.21633  Biso   1.000  C
  H134     1.0000 0.01047  0.16003  0.28733  Biso   1.000  H
  C267     1.0000 0.96716  0.12261  0.19113  Biso   1.000  C
  C268     1.0000 0.94910  0.11650  0.09063  Biso   1.000  C
  H135     1.0000 0.95747  0.13513  0.03683  Biso   1.000  H
  C269     1.0000 0.91920  0.08363  0.06883  Biso   1.000  C
  H136     1.0000 0.90737  0.07973  0.99943  Biso   1.000  H
  C270     1.0000 0.90604  0.05606  0.14633  Biso   1.000  C
  C271     1.0000 0.92374  0.06235  0.24633  Biso   1.000  C
  H137     1.0000 0.91507  0.04383  0.30043  Biso   1.000  H
  C272     1.0000 0.95404  0.09540  0.26933  Biso   1.000  C
  H138     1.0000 0.96577  0.09933  0.33893  Biso   1.000  H
  C273     1.0000 0.87306  0.02015  0.12243  Biso   1.000  C
  H139     1.0000 0.85447  0.02403  0.08913  Biso   1.000  H
  H140     1.0000 0.86397  0.00663  0.19163  Biso   1.000  H
  H141     1.0000 0.87937  0.00653  0.07093  Biso   1.000  H
  C274     1.0000 0.02670  0.31188  0.38393  Biso   1.000  C
  C275     1.0000 0.06734  0.33413  0.40133  Biso   1.000  C
  C276     1.0000 0.08239  0.37050  0.42623  Biso   1.000  C
  H142     1.0000 0.06737  0.38083  0.43173  Biso   1.000  H
  C277     1.0000 0.11907  0.39169  0.44293  Biso   1.000  C
  C278     1.0000 0.13501  0.43205  0.46343  Biso   1.000  C
  C279     1.0000 0.07430  0.33777  0.75663  Biso   1.000  C
  C280     1.0000 0.10890  0.34306  0.70193  Biso   1.000  C
  C281     1.0000 0.14201  0.36488  0.75283  Biso   1.000  C
  H143     1.0000 0.14317  0.37703  0.81973  Biso   1.000  H
  C282     1.0000 0.17322  0.36869  0.70543  Biso   1.000  C
  C283     1.0000 0.20886  0.39162  0.76653  Biso   1.000  C
  C284     1.0000 0.18655  0.25158  0.56363  Biso   1.000  C
  C285     1.0000 0.15642  0.25976  0.53853  Biso   1.000  C
  C286     1.0000 0.12148  0.23215  0.55093  Biso   1.000  C
  H144     1.0000 0.11687  0.20883  0.57203  Biso   1.000  H
  C287     1.0000 0.09268  0.23812  0.53273  Biso   1.000  C
  C288     1.0000 0.05439  0.20644  0.55103  Biso   1.000  C
  Dy10     1.0000 0.19513  0.34070  0.20158  Biso   1.000  Dy
  F190     1.0000 0.32078  0.38007  0.20163  Biso   1.000  F
  F191     1.0000 0.31573  0.37259  0.37463  Biso   1.000  F
  F192     1.0000 0.32473  0.33834  0.27473  Biso   1.000  F
  F193     1.0000 0.32412  0.34748  0.20773  Biso   1.000  F
  F194     1.0000 0.31864  0.38824  0.30483  Biso   1.000  F
  F195     1.0000 0.31481  0.34267  0.37753  Biso   1.000  F
  F196     1.0000 0.17358  0.21539  0.27803  Biso   1.000  F
  F197     1.0000 0.22238  0.22394  0.20513  Biso   1.000  F
  F198     1.0000 0.18281  0.22563  0.10473  Biso   1.000  F
  F199     1.0000 0.27678  0.31933  0.97956  Biso   1.000  F
  F200     1.0000 0.25329  0.30987  0.81805  Biso   1.000  F
  F201     1.0000 0.28101  0.36296  0.88453  Biso   1.000  F
  F202     1.0000 0.10403  0.29048  0.90241  Biso   1.000  F
  F203     1.0000 0.10480  0.24411  0.95163  Biso   1.000  F
  F204     1.0000 0.12834  0.26914  0.79613  Biso   1.000  F
  F205     1.0000 0.13139  0.40066  0.00562  Biso   1.000  F
  F206     1.0000 0.12074  0.40046  0.17835  Biso   1.000  F
  F207     1.0000 0.15775  0.44986  0.09763  Biso   1.000  F
  F208     1.0000 0.28707  0.46406  0.00943  Biso   1.000  F
  F209     1.0000 0.28254  0.49137  0.15023  Biso   1.000  F
  F210     1.0000 0.30279  0.45600  0.16983  Biso   1.000  F
  O64      1.0000 0.19443  0.35965  0.38318  Biso   1.000  O
  O65      1.0000 0.24998  0.34979  0.27719  Biso   1.000  O
  O66      1.0000 0.19099  0.28466  0.22231  Biso   1.000  O
  O67      1.0000 0.23027  0.34046  0.05296  Biso   1.000  O
  O68      1.0000 0.15702  0.31090  0.05038  Biso   1.000  O
  O69      1.0000 0.16570  0.37444  0.15623  Biso   1.000  O
  O70      1.0000 0.23905  0.40022  0.16364  Biso   1.000  O
  N19      1.0000 0.24273  0.35526  0.51973  Biso   1.000  N
  N20      1.0000 0.31896  0.48404  0.51983  Biso   1.000  N
  C289     1.0000 0.24871  0.38832  0.48733  Biso   1.000  C
  C290     1.0000 0.22240  0.39025  0.42133  Biso   1.000  C
  C291     1.0000 0.22744  0.42402  0.40013  Biso   1.000  C
  H145     1.0000 0.20917  0.42623  0.36263  Biso   1.000  H
  C292     1.0000 0.25916  0.45528  0.43313  Biso   1.000  C
  H146     1.0000 0.26187  0.47813  0.41683  Biso   1.000  H
  C293     1.0000 0.28630  0.45352  0.48843  Biso   1.000  C
  C294     1.0000 0.28074  0.41933  0.52113  Biso   1.000  C
  C295     1.0000 0.30502  0.41418  0.58693  Biso   1.000  C
  H147     1.0000 0.32687  0.43453  0.61083  Biso   1.000  H
  C296     1.0000 0.29752  0.38034  0.61663  Biso   1.000  C
  H148     1.0000 0.31397  0.37713  0.66093  Biso   1.000  H
  C297     1.0000 0.26600  0.35100  0.58203  Biso   1.000  C
  H149     1.0000 0.26077  0.32753  0.60253  Biso   1.000  H
  C298     1.0000 0.33352  0.50972  0.45033  Biso   1.000  C
  H150     1.0000 0.32287  0.50663  0.37933  Biso   1.000  H
  C299     1.0000 0.36618  0.54405  0.47553  Biso   1.000  C
  C300     1.0000 0.38424  0.55016  0.57603  Biso   1.000  C
  H151     1.0000 0.37587  0.53153  0.62983  Biso   1.000  H
  C301     1.0000 0.41414  0.58303  0.59783  Biso   1.000  C
  H152     1.0000 0.42597  0.58693  0.66723  Biso   1.000  H
  C302     1.0000 0.42730  0.61060  0.52033  Biso   1.000  C
  C303     1.0000 0.40960  0.60431  0.42033  Biso   1.000  C
  H153     1.0000 0.41827  0.62283  0.36623  Biso   1.000  H
  C304     1.0000 0.37930  0.57126  0.39733  Biso   1.000  C
  H154     1.0000 0.36757  0.56733  0.32773  Biso   1.000  H
  C305     1.0000 0.46028  0.64651  0.54423  Biso   1.000  C
  H155     1.0000 0.47887  0.64263  0.57753  Biso   1.000  H
  H156     1.0000 0.46937  0.66003  0.47503  Biso   1.000  H
  H157     1.0000 0.45397  0.66013  0.59573  Biso   1.000  H
  C306     1.0000 0.30664  0.35478  0.28273  Biso   1.000  C
  C307     1.0000 0.26600  0.33253  0.26533  Biso   1.000  C
  C308     1.0000 0.25095  0.29616  0.24043  Biso   1.000  C
  H158     1.0000 0.26597  0.28583  0.23493  Biso   1.000  H
  C309     1.0000 0.21427  0.27497  0.22373  Biso   1.000  C
  C310     1.0000 0.19833  0.23461  0.20323  Biso   1.000  C
  C311     1.0000 0.25904  0.32889  0.91003  Biso   1.000  C
  C312     1.0000 0.22444  0.32360  0.96473  Biso   1.000  C
  C313     1.0000 0.19133  0.30178  0.91383  Biso   1.000  C
  H159     1.0000 0.19017  0.28963  0.84693  Biso   1.000  H
  C314     1.0000 0.16012  0.29797  0.96123  Biso   1.000  C
  C315     1.0000 0.12448  0.27504  0.90013  Biso   1.000  C
  C316     1.0000 0.14679  0.41508  0.10303  Biso   1.000  C
  C317     1.0000 0.17692  0.40690  0.12813  Biso   1.000  C
  C318     1.0000 0.21186  0.43451  0.11573  Biso   1.000  C
  H160     1.0000 0.21647  0.45783  0.09463  Biso   1.000  H
  C319     1.0000 0.24066  0.42854  0.13393  Biso   1.000  C
  C320     1.0000 0.27895  0.46022  0.11563  Biso   1.000  C
  Dy11     1.0000 0.80487  0.65930  0.79842  Biso   1.000  Dy
  F211     1.0000 0.67922  0.61993  0.79837  Biso   1.000  F
  F212     1.0000 0.68427  0.62741  0.62537  Biso   1.000  F
  F213     1.0000 0.67527  0.66166  0.72527  Biso   1.000  F
  F214     1.0000 0.67588  0.65252  0.79227  Biso   1.000  F
  F215     1.0000 0.68136  0.61176  0.69517  Biso   1.000  F
  F216     1.0000 0.68519  0.65733  0.62247  Biso   1.000  F
  F217     1.0000 0.82642  0.78461  0.72197  Biso   1.000  F
  F218     1.0000 0.77762  0.77606  0.79487  Biso   1.000  F
  F219     1.0000 0.81719  0.77437  0.89527  Biso   1.000  F
  F220     1.0000 0.72322  0.68067  0.02044  Biso   1.000  F
  F221     1.0000 0.74671  0.69013  0.18195  Biso   1.000  F
  F222     1.0000 0.71899  0.63704  0.11547  Biso   1.000  F
  F223     1.0000 0.89597  0.70952  0.09759  Biso   1.000  F
  F224     1.0000 0.89520  0.75589  0.04837  Biso   1.000  F
  F225     1.0000 0.87166  0.73086  0.20387  Biso   1.000  F
  F226     1.0000 0.86861  0.59934  0.99438  Biso   1.000  F
  F227     1.0000 0.87926  0.59954  0.82165  Biso   1.000  F
  F228     1.0000 0.84225  0.55014  0.90237  Biso   1.000  F
  F229     1.0000 0.71293  0.53594  0.99057  Biso   1.000  F
  F230     1.0000 0.71746  0.50863  0.84977  Biso   1.000  F
  F231     1.0000 0.69721  0.54400  0.83017  Biso   1.000  F
  O71      1.0000 0.80557  0.64035  0.61682  Biso   1.000  O
  O72      1.0000 0.75002  0.65021  0.72281  Biso   1.000  O
  O73      1.0000 0.80901  0.71534  0.77769  Biso   1.000  O
  O74      1.0000 0.76973  0.65954  0.94704  Biso   1.000  O
  O75      1.0000 0.84298  0.68910  0.94962  Biso   1.000  O
  O76      1.0000 0.83430  0.62556  0.84377  Biso   1.000  O
  O77      1.0000 0.76095  0.59978  0.83636  Biso   1.000  O
  N21      1.0000 0.75727  0.64474  0.48027  Biso   1.000  N
  N22      1.0000 0.68104  0.51596  0.48017  Biso   1.000  N
  C321     1.0000 0.75129  0.61168  0.51267  Biso   1.000  C
  C322     1.0000 0.77760  0.60975  0.57867  Biso   1.000  C
  C323     1.0000 0.77256  0.57598  0.59987  Biso   1.000  C
  H161     1.0000 0.79083  0.57377  0.63737  Biso   1.000  H
  C324     1.0000 0.74084  0.54472  0.56687  Biso   1.000  C
  H162     1.0000 0.73813  0.52187  0.58317  Biso   1.000  H
  C325     1.0000 0.71370  0.54648  0.51157  Biso   1.000  C
  C326     1.0000 0.71926  0.58067  0.47887  Biso   1.000  C
  C327     1.0000 0.69498  0.58582  0.41307  Biso   1.000  C
  H163     1.0000 0.67313  0.56547  0.38917  Biso   1.000  H
  C328     1.0000 0.70248  0.61966  0.38337  Biso   1.000  C
  H164     1.0000 0.68603  0.62287  0.33907  Biso   1.000  H
  C329     1.0000 0.73400  0.64900  0.41797  Biso   1.000  C
  H165     1.0000 0.73923  0.67247  0.39747  Biso   1.000  H
  C330     1.0000 0.66648  0.49028  0.54967  Biso   1.000  C
  H166     1.0000 0.67713  0.49337  0.62067  Biso   1.000  H
  C331     1.0000 0.63382  0.45595  0.52447  Biso   1.000  C
  C332     1.0000 0.61576  0.44984  0.42397  Biso   1.000  C
  H167     1.0000 0.62413  0.46847  0.37017  Biso   1.000  H
  C333     1.0000 0.58586  0.41697  0.40217  Biso   1.000  C
  H168     1.0000 0.57403  0.41307  0.33277  Biso   1.000  H
  C334     1.0000 0.57270  0.38940  0.47967  Biso   1.000  C
  C335     1.0000 0.59040  0.39569  0.57967  Biso   1.000  C
  H169     1.0000 0.58173  0.37717  0.63377  Biso   1.000  H
  C336     1.0000 0.62070  0.42874  0.60267  Biso   1.000  C
  H170     1.0000 0.63243  0.43267  0.67227  Biso   1.000  H
  C337     1.0000 0.53972  0.35349  0.45577  Biso   1.000  C
  H171     1.0000 0.52113  0.35737  0.42247  Biso   1.000  H
  H172     1.0000 0.53063  0.33997  0.52497  Biso   1.000  H
  H173     1.0000 0.54603  0.33987  0.40427  Biso   1.000  H
  C338     1.0000 0.69336  0.64522  0.71727  Biso   1.000  C
  C339     1.0000 0.73400  0.66747  0.73467  Biso   1.000  C
  C340     1.0000 0.74905  0.70384  0.75957  Biso   1.000  C
  H174     1.0000 0.73403  0.71417  0.76507  Biso   1.000  H
  C341     1.0000 0.78573  0.72503  0.77627  Biso   1.000  C
  C342     1.0000 0.80167  0.76539  0.79677  Biso   1.000  C
  C343     1.0000 0.74096  0.67111  0.08997  Biso   1.000  C
  C344     1.0000 0.77556  0.67640  0.03527  Biso   1.000  C
  C345     1.0000 0.80867  0.69822  0.08617  Biso   1.000  C
  H175     1.0000 0.80983  0.71037  0.15307  Biso   1.000  H
  C346     1.0000 0.83988  0.70203  0.03877  Biso   1.000  C
  C347     1.0000 0.87552  0.72496  0.09987  Biso   1.000  C
  C348     1.0000 0.85321  0.58492  0.89697  Biso   1.000  C
  C349     1.0000 0.82308  0.59310  0.87187  Biso   1.000  C
  C350     1.0000 0.78814  0.56549  0.88427  Biso   1.000  C
  H176     1.0000 0.78353  0.54217  0.90537  Biso   1.000  H
  C351     1.0000 0.75934  0.57146  0.86607  Biso   1.000  C
  C352     1.0000 0.72105  0.53978  0.88437  Biso   1.000  C
  Dy12     1.0000 0.86180  0.67403  0.53491  Biso   1.000  Dy
  F232     1.0000 0.98744  0.71341  0.53497  Biso   1.000  F
  F233     1.0000 0.98239  0.70593  0.70797  Biso   1.000  F
  F234     1.0000 0.99139  0.67168  0.60807  Biso   1.000  F
  F235     1.0000 0.99078  0.68082  0.54107  Biso   1.000  F
  F236     1.0000 0.98530  0.72158  0.63817  Biso   1.000  F
  F237     1.0000 0.98147  0.67601  0.71087  Biso   1.000  F
  F238     1.0000 0.84024  0.54873  0.61137  Biso   1.000  F
  F239     1.0000 0.88904  0.55728  0.53847  Biso   1.000  F
  F240     1.0000 0.84947  0.55897  0.43807  Biso   1.000  F
  F241     1.0000 0.94344  0.65267  0.31290  Biso   1.000  F
  F242     1.0000 0.91995  0.64321  0.15139  Biso   1.000  F
  F243     1.0000 0.94767  0.69630  0.21787  Biso   1.000  F
  F244     1.0000 0.77069  0.62382  0.23575  Biso   1.000  F
  F245     1.0000 0.77146  0.57745  0.28497  Biso   1.000  F
  F246     1.0000 0.79500  0.60248  0.12947  Biso   1.000  F
  F247     1.0000 0.79805  0.73400  0.33896  Biso   1.000  F
  F248     1.0000 0.78740  0.73380  0.51169  Biso   1.000  F
  F249     1.0000 0.82441  0.78320  0.43097  Biso   1.000  F
  F250     1.0000 0.95373  0.79740  0.34277  Biso   1.000  F
  F251     1.0000 0.94920  0.82471  0.48357  Biso   1.000  F
  F252     1.0000 0.96945  0.78934  0.50317  Biso   1.000  F
  O78      1.0000 0.86109  0.69299  0.71652  Biso   1.000  O
  O79      1.0000 0.91664  0.68313  0.61053  Biso   1.000  O
  O80      1.0000 0.85765  0.61800  0.55565  Biso   1.000  O
  O81      1.0000 0.89693  0.67380  0.38630  Biso   1.000  O
  O82      1.0000 0.82368  0.64424  0.38372  Biso   1.000  O
  O83      1.0000 0.83236  0.70778  0.48957  Biso   1.000  O
  O84      1.0000 0.90571  0.73356  0.49698  Biso   1.000  O
  N23      1.0000 0.90939  0.68860  0.85307  Biso   1.000  N
  N24      1.0000 0.98562  0.81738  0.85317  Biso   1.000  N
  C353     1.0000 0.91537  0.72166  0.82067  Biso   1.000  C
  C354     1.0000 0.88906  0.72359  0.75467  Biso   1.000  C
  C355     1.0000 0.89410  0.75736  0.73347  Biso   1.000  C
  H177     1.0000 0.87583  0.75957  0.69597  Biso   1.000  H
  C356     1.0000 0.92582  0.78862  0.76647  Biso   1.000  C
  H178     1.0000 0.92853  0.81147  0.75017  Biso   1.000  H
  C357     1.0000 0.95296  0.78686  0.82177  Biso   1.000  C
  C358     1.0000 0.94740  0.75267  0.85447  Biso   1.000  C
  C359     1.0000 0.97168  0.74752  0.92027  Biso   1.000  C
  H179     1.0000 0.99353  0.76787  0.94417  Biso   1.000  H
  C360     1.0000 0.96418  0.71368  0.94997  Biso   1.000  C
  H180     1.0000 0.98063  0.71047  0.99427  Biso   1.000  H
  C361     1.0000 0.93266  0.68434  0.91537  Biso   1.000  C
  H181     1.0000 0.92743  0.66087  0.93587  Biso   1.000  H
  C362     1.0000 0.00018  0.84306  0.78367  Biso   1.000  C
  H182     1.0000 0.98953  0.83997  0.71267  Biso   1.000  H
  C363     1.0000 0.03284  0.87739  0.80887  Biso   1.000  C
  C364     1.0000 0.05090  0.88350  0.90937  Biso   1.000  C
  H183     1.0000 0.04253  0.86487  0.96317  Biso   1.000  H
  C365     1.0000 0.08080  0.91637  0.93117  Biso   1.000  C
  H184     1.0000 0.09263  0.92027  0.00057  Biso   1.000  H
  C366     1.0000 0.09396  0.94394  0.85367  Biso   1.000  C
  C367     1.0000 0.07626  0.93765  0.75367  Biso   1.000  C
  H185     1.0000 0.08493  0.95617  0.69957  Biso   1.000  H
  C368     1.0000 0.04596  0.90460  0.73067  Biso   1.000  C
  H186     1.0000 0.03423  0.90067  0.66107  Biso   1.000  H
  C369     1.0000 0.12694  0.97985  0.87757  Biso   1.000  C
  H187     1.0000 0.14553  0.97597  0.91087  Biso   1.000  H
  H188     1.0000 0.13603  0.99337  0.80837  Biso   1.000  H
  H189     1.0000 0.12063  0.99347  0.92907  Biso   1.000  H
  C370     1.0000 0.97330  0.68812  0.61607  Biso   1.000  C
  C371     1.0000 0.93266  0.66587  0.59867  Biso   1.000  C
  C372     1.0000 0.91761  0.62950  0.57377  Biso   1.000  C
  H190     1.0000 0.93263  0.61917  0.56827  Biso   1.000  H
  C373     1.0000 0.88093  0.60831  0.55707  Biso   1.000  C
  C374     1.0000 0.86499  0.56795  0.53657  Biso   1.000  C
  C375     1.0000 0.92570  0.66223  0.24337  Biso   1.000  C
  C376     1.0000 0.89110  0.65694  0.29807  Biso   1.000  C
  C377     1.0000 0.85799  0.63512  0.24717  Biso   1.000  C
  H191     1.0000 0.85683  0.62297  0.18027  Biso   1.000  H
  C378     1.0000 0.82678  0.63131  0.29457  Biso   1.000  C
  C379     1.0000 0.79114  0.60838  0.23347  Biso   1.000  C
  C380     1.0000 0.81345  0.74842  0.43637  Biso   1.000  C
  C381     1.0000 0.84358  0.74024  0.46147  Biso   1.000  C
  C382     1.0000 0.87852  0.76785  0.44907  Biso   1.000  C
  H192     1.0000 0.88313  0.79117  0.42797  Biso   1.000  H
  C383     1.0000 0.90732  0.76188  0.46727  Biso   1.000  C
  C384     1.0000 0.94561  0.79356  0.44897  Biso   1.000  C
  Dy13     1.0000 0.00737  0.47890  0.13175  Biso   1.000  Dy
  F253     1.0000 0.04674  0.39263  0.13170  Biso   1.000  F
  F254     1.0000 0.03926  0.39020  0.95870  Biso   1.000  F
  F255     1.0000 0.00501  0.34695  0.05860  Biso   1.000  F
  F256     1.0000 0.01415  0.35670  0.12560  Biso   1.000  F
  F257     1.0000 0.05491  0.40294  0.02850  Biso   1.000  F
  F258     1.0000 0.00934  0.36120  0.95580  Biso   1.000  F
  F259     1.0000 0.88206  0.37515  0.05530  Biso   1.000  F
  F260     1.0000 0.89061  0.33490  0.12820  Biso   1.000  F
  F261     1.0000 0.89230  0.37616  0.22860  Biso   1.000  F
  F262     1.0000 0.98600  0.37589  0.35377  Biso   1.000  F
  F263     1.0000 0.97654  0.38992  0.51528  Biso   1.000  F
  F264     1.0000 0.02963  0.41529  0.44880  Biso   1.000  F
  F265     1.0000 0.95715  0.51979  0.43092  Biso   1.000  F
  F266     1.0000 0.91078  0.47265  0.38170  Biso   1.000  F
  F267     1.0000 0.93581  0.47414  0.53720  Biso   1.000  F
  F268     1.0000 0.06733  0.60261  0.32771  Biso   1.000  F
  F269     1.0000 0.06713  0.61306  0.15498  Biso   1.000  F
  F270     1.0000 0.11653  0.62545  0.23570  Biso   1.000  F
  F271     1.0000 0.13073  0.51033  0.32390  Biso   1.000  F
  F272     1.0000 0.15804  0.54217  0.18310  Biso   1.000  F
  F273     1.0000 0.12267  0.48655  0.16350  Biso   1.000  F
  O85      1.0000 0.02632  0.49856  0.95015  Biso   1.000  O
  O86      1.0000 0.01646  0.43315  0.05614  Biso   1.000  O
  O87      1.0000 0.95133  0.42701  0.11102  Biso   1.000  O
  O88      1.0000 0.00713  0.44353  0.28037  Biso   1.000  O
  O89      1.0000 0.97757  0.48722  0.28295  Biso   1.000  O
  O90      1.0000 0.04111  0.54208  0.17710  Biso   1.000  O
  O91      1.0000 0.06689  0.49451  0.16969  Biso   1.000  O
  N25      1.0000 0.02193  0.44587  0.81360  Biso   1.000  N
  N26      1.0000 0.15071  0.49842  0.81350  Biso   1.000  N
  C385     1.0000 0.05499  0.47295  0.84600  Biso   1.000  C
  C386     1.0000 0.05692  0.50119  0.91200  Biso   1.000  C
  C387     1.0000 0.09069  0.52992  0.93320  Biso   1.000  C
  H193     1.0000 0.09290  0.55040  0.97070  Biso   1.000  H
  C388     1.0000 0.12195  0.52946  0.90020  Biso   1.000  C
  H194     1.0000 0.14480  0.54960  0.91650  Biso   1.000  H
  C389     1.0000 0.12019  0.50056  0.84490  Biso   1.000  C
  C390     1.0000 0.08600  0.47193  0.81220  Biso   1.000  C
  C391     1.0000 0.08085  0.44250  0.74640  Biso   1.000  C
  H195     1.0000 0.10120  0.44100  0.72250  Biso   1.000  H
  C392     1.0000 0.04701  0.41616  0.71670  Biso   1.000  C
  H196     1.0000 0.04380  0.39650  0.67240  Biso   1.000  H
  C393     1.0000 0.01767  0.41834  0.75130  Biso   1.000  C
  H197     1.0000 0.99420  0.40010  0.73080  Biso   1.000  H
  C394     1.0000 0.17639  0.50954  0.88300  Biso   1.000  C
  H198     1.0000 0.17330  0.51710  0.95400  Biso   1.000  H
  C395     1.0000 0.21072  0.51121  0.85780  Biso   1.000  C
  C396     1.0000 0.21683  0.49926  0.75730  Biso   1.000  C
  H199     1.0000 0.19820  0.48900  0.70350  Biso   1.000  H
  C397     1.0000 0.24970  0.50223  0.73550  Biso   1.000  C
  H200     1.0000 0.25360  0.49430  0.66610  Biso   1.000  H
  C398     1.0000 0.27727  0.51664  0.81300  Biso   1.000  C
  C399     1.0000 0.27098  0.52805  0.91300  Biso   1.000  C
  H201     1.0000 0.28950  0.53790  0.96710  Biso   1.000  H
  C400     1.0000 0.23793  0.52530  0.93600  Biso   1.000  C
  H202     1.0000 0.23400  0.53310  0.00560  Biso   1.000  H
  C401     1.0000 0.31318  0.51957  0.78910  Biso   1.000  C
  H203     1.0000 0.30930  0.49710  0.75580  Biso   1.000  H
  H204     1.0000 0.32670  0.52400  0.85830  Biso   1.000  H
  H205     1.0000 0.32680  0.53950  0.73760  Biso   1.000  H
  C402     1.0000 0.02145  0.38148  0.05060  Biso   1.000  C
  C403     1.0000 0.99920  0.39987  0.06800  Biso   1.000  C
  C404     1.0000 0.96283  0.37855  0.09290  Biso   1.000  C
  H206     1.0000 0.95250  0.35320  0.09840  Biso   1.000  H
  C405     1.0000 0.94164  0.39404  0.10960  Biso   1.000  C
  C406     1.0000 0.90128  0.36962  0.13010  Biso   1.000  C
  C407     1.0000 0.99556  0.40319  0.42330  Biso   1.000  C
  C408     1.0000 0.99027  0.43250  0.36860  Biso   1.000  C
  C409     1.0000 0.96845  0.44379  0.41950  Biso   1.000  C
  H207     1.0000 0.95630  0.43280  0.48640  Biso   1.000  H
  C410     1.0000 0.96464  0.47119  0.37210  Biso   1.000  C
  C411     1.0000 0.94171  0.48390  0.43320  Biso   1.000  C
  C412     1.0000 0.08175  0.60163  0.23030  Biso   1.000  C
  C413     1.0000 0.07357  0.56332  0.20520  Biso   1.000  C
  C414     1.0000 0.10118  0.55599  0.21760  Biso   1.000  C
  H208     1.0000 0.12450  0.57470  0.23870  Biso   1.000  H
  C415     1.0000 0.09521  0.52122  0.19940  Biso   1.000  C
  C416     1.0000 0.12689  0.51461  0.21770  Biso   1.000  C
  Dy14     1.0000 0.99263  0.52110  0.86825  Biso   1.000  Dy
  F274     1.0000 0.95326  0.60737  0.86830  Biso   1.000  F
  F275     1.0000 0.96074  0.60980  0.04130  Biso   1.000  F
  F276     1.0000 0.99499  0.65305  0.94140  Biso   1.000  F
  F277     1.0000 0.98585  0.64330  0.87440  Biso   1.000  F
  F278     1.0000 0.94509  0.59706  0.97150  Biso   1.000  F
  F279     1.0000 0.99066  0.63880  0.04420  Biso   1.000  F
  F280     1.0000 0.11794  0.62485  0.94470  Biso   1.000  F
  F281     1.0000 0.10939  0.66510  0.87180  Biso   1.000  F
  F282     1.0000 0.10770  0.62384  0.77140  Biso   1.000  F
  F283     1.0000 0.01400  0.62411  0.64623  Biso   1.000  F
  F284     1.0000 0.02346  0.61008  0.48472  Biso   1.000  F
  F285     1.0000 0.97037  0.58471  0.55120  Biso   1.000  F
  F286     1.0000 0.04285  0.48021  0.56908  Biso   1.000  F
  F287     1.0000 0.08922  0.52735  0.61830  Biso   1.000  F
  F288     1.0000 0.06419  0.52586  0.46280  Biso   1.000  F
  F289     1.0000 0.93267  0.39739  0.67229  Biso   1.000  F
  F290     1.0000 0.93287  0.38694  0.84502  Biso   1.000  F
  F291     1.0000 0.88347  0.37455  0.76430  Biso   1.000  F
  F292     1.0000 0.86927  0.48967  0.67610  Biso   1.000  F
  F293     1.0000 0.84196  0.45783  0.81690  Biso   1.000  F
  F294     1.0000 0.87733  0.51345  0.83650  Biso   1.000  F
  O92      1.0000 0.97368  0.50144  0.04985  Biso   1.000  O
  O93      1.0000 0.98354  0.56685  0.94386  Biso   1.000  O
  O94      1.0000 0.04867  0.57299  0.88898  Biso   1.000  O
  O95      1.0000 0.99287  0.55647  0.71963  Biso   1.000  O
  O96      1.0000 0.02243  0.51278  0.71705  Biso   1.000  O
  O97      1.0000 0.95889  0.45792  0.82290  Biso   1.000  O
  O98      1.0000 0.93311  0.50549  0.83031  Biso   1.000  O
  N27      1.0000 0.97807  0.55413  0.18640  Biso   1.000  N
  N28      1.0000 0.84929  0.50158  0.18650  Biso   1.000  N
  C417     1.0000 0.94501  0.52705  0.15400  Biso   1.000  C
  C418     1.0000 0.94308  0.49881  0.08800  Biso   1.000  C
  C419     1.0000 0.90931  0.47008  0.06680  Biso   1.000  C
  H209     1.0000 0.90710  0.44960  0.02930  Biso   1.000  H
  C420     1.0000 0.87805  0.47054  0.09980  Biso   1.000  C
  H210     1.0000 0.85520  0.45040  0.08350  Biso   1.000  H
  C421     1.0000 0.87981  0.49944  0.15510  Biso   1.000  C
  C422     1.0000 0.91400  0.52807  0.18780  Biso   1.000  C
  C423     1.0000 0.91915  0.55750  0.25360  Biso   1.000  C
  H211     1.0000 0.89880  0.55900  0.27750  Biso   1.000  H
  C424     1.0000 0.95299  0.58384  0.28330  Biso   1.000  C
  H212     1.0000 0.95620  0.60350  0.32760  Biso   1.000  H
  C425     1.0000 0.98233  0.58166  0.24870  Biso   1.000  C
  H213     1.0000 0.00580  0.59990  0.26920  Biso   1.000  H
  C426     1.0000 0.82361  0.49046  0.11700  Biso   1.000  C
  H214     1.0000 0.82670  0.48290  0.04600  Biso   1.000  H
  C427     1.0000 0.78928  0.48879  0.14220  Biso   1.000  C
  C428     1.0000 0.78317  0.50074  0.24270  Biso   1.000  C
  H215     1.0000 0.80180  0.51100  0.29650  Biso   1.000  H
  C429     1.0000 0.75030  0.49777  0.26450  Biso   1.000  C
  H216     1.0000 0.74640  0.50570  0.33390  Biso   1.000  H
  C430     1.0000 0.72273  0.48336  0.18700  Biso   1.000  C
  C431     1.0000 0.72902  0.47195  0.08700  Biso   1.000  C
  H217     1.0000 0.71050  0.46210  0.03290  Biso   1.000  H
  C432     1.0000 0.76207  0.47470  0.06400  Biso   1.000  C
  H218     1.0000 0.76600  0.46690  0.99440  Biso   1.000  H
  C433     1.0000 0.68682  0.48043  0.21090  Biso   1.000  C
  H219     1.0000 0.69070  0.50290  0.24420  Biso   1.000  H
  H220     1.0000 0.67330  0.47600  0.14170  Biso   1.000  H
  H221     1.0000 0.67320  0.46050  0.26240  Biso   1.000  H
  C434     1.0000 0.97855  0.61852  0.94940  Biso   1.000  C
  C435     1.0000 0.00080  0.60013  0.93200  Biso   1.000  C
  C436     1.0000 0.03717  0.62145  0.90710  Biso   1.000  C
  H222     1.0000 0.04750  0.64680  0.90160  Biso   1.000  H
  C437     1.0000 0.05836  0.60596  0.89040  Biso   1.000  C
  C438     1.0000 0.09872  0.63038  0.86990  Biso   1.000  C
  C439     1.0000 0.00444  0.59681  0.57670  Biso   1.000  C
  C440     1.0000 0.00973  0.56750  0.63140  Biso   1.000  C
  C441     1.0000 0.03155  0.55621  0.58050  Biso   1.000  C
  H223     1.0000 0.04370  0.56720  0.51360  Biso   1.000  H
  C442     1.0000 0.03536  0.52881  0.62790  Biso   1.000  C
  C443     1.0000 0.05829  0.51610  0.56680  Biso   1.000  C
  C444     1.0000 0.91825  0.39837  0.76970  Biso   1.000  C
  C445     1.0000 0.92643  0.43668  0.79480  Biso   1.000  C
  C446     1.0000 0.89882  0.44401  0.78240  Biso   1.000  C
  H224     1.0000 0.87550  0.42530  0.76130  Biso   1.000  H
  C447     1.0000 0.90479  0.47878  0.80060  Biso   1.000  C
  C448     1.0000 0.87311  0.48539  0.78230  Biso   1.000  C
  Dy15     1.0000 0.67403  0.81223  0.46509  Biso   1.000  Dy
  F295     1.0000 0.71341  0.72596  0.46503  Biso   1.000  F
  F296     1.0000 0.70593  0.72353  0.29203  Biso   1.000  F
  F297     1.0000 0.67168  0.68028  0.39193  Biso   1.000  F
  F298     1.0000 0.68082  0.69003  0.45893  Biso   1.000  F
  F299     1.0000 0.72158  0.73627  0.36183  Biso   1.000  F
  F300     1.0000 0.67601  0.69453  0.28913  Biso   1.000  F
  F301     1.0000 0.54873  0.70848  0.38863  Biso   1.000  F
  F302     1.0000 0.55728  0.66823  0.46153  Biso   1.000  F
  F303     1.0000 0.55897  0.70949  0.56193  Biso   1.000  F
  F304     1.0000 0.65267  0.70922  0.68710  Biso   1.000  F
  F305     1.0000 0.64321  0.72325  0.84861  Biso   1.000  F
  F306     1.0000 0.69630  0.74862  0.78213  Biso   1.000  F
  F307     1.0000 0.62382  0.85312  0.76425  Biso   1.000  F
  F308     1.0000 0.57745  0.80598  0.71503  Biso   1.000  F
  F309     1.0000 0.60248  0.80747  0.87053  Biso   1.000  F
  F310     1.0000 0.73400  0.93594  0.66104  Biso   1.000  F
  F311     1.0000 0.73380  0.94639  0.48831  Biso   1.000  F
  F312     1.0000 0.78320  0.95878  0.56903  Biso   1.000  F
  F313     1.0000 0.79740  0.84366  0.65723  Biso   1.000  F
  F314     1.0000 0.82471  0.87550  0.51643  Biso   1.000  F
  F315     1.0000 0.78934  0.81988  0.49683  Biso   1.000  F
  O99      1.0000 0.69299  0.83189  0.28348  Biso   1.000  O
  O100     1.0000 0.68313  0.76648  0.38947  Biso   1.000  O
  O101     1.0000 0.61800  0.76034  0.44435  Biso   1.000  O
  O102     1.0000 0.67380  0.77686  0.61370  Biso   1.000  O
  O103     1.0000 0.64424  0.82055  0.61628  Biso   1.000  O
  O104     1.0000 0.70778  0.87541  0.51043  Biso   1.000  O
  O105     1.0000 0.73356  0.82784  0.50302  Biso   1.000  O
  N29      1.0000 0.68860  0.77920  0.14693  Biso   1.000  N
  N30      1.0000 0.81738  0.83175  0.14683  Biso   1.000  N
  C449     1.0000 0.72166  0.80628  0.17933  Biso   1.000  C
  C450     1.0000 0.72359  0.83452  0.24533  Biso   1.000  C
  C451     1.0000 0.75736  0.86325  0.26653  Biso   1.000  C
  H225     1.0000 0.75957  0.88373  0.30403  Biso   1.000  H
  C452     1.0000 0.78862  0.86279  0.23353  Biso   1.000  C
  H226     1.0000 0.81147  0.88293  0.24983  Biso   1.000  H
  C453     1.0000 0.78686  0.83389  0.17823  Biso   1.000  C
  C454     1.0000 0.75267  0.80526  0.14553  Biso   1.000  C
  C455     1.0000 0.74752  0.77583  0.07973  Biso   1.000  C
  H227     1.0000 0.76787  0.77433  0.05583  Biso   1.000  H
  C456     1.0000 0.71368  0.74949  0.05003  Biso   1.000  C
  H228     1.0000 0.71047  0.72983  0.00573  Biso   1.000  H
  C457     1.0000 0.68434  0.75167  0.08463  Biso   1.000  C
  H229     1.0000 0.66087  0.73343  0.06413  Biso   1.000  H
  C458     1.0000 0.84306  0.84287  0.21633  Biso   1.000  C
  H230     1.0000 0.83997  0.85043  0.28733  Biso   1.000  H
  C459     1.0000 0.87739  0.84454  0.19113  Biso   1.000  C
  C460     1.0000 0.88350  0.83259  0.09063  Biso   1.000  C
  H231     1.0000 0.86487  0.82233  0.03683  Biso   1.000  H
  C461     1.0000 0.91637  0.83556  0.06883  Biso   1.000  C
  H232     1.0000 0.92027  0.82763  0.99943  Biso   1.000  H
  C462     1.0000 0.94394  0.84997  0.14633  Biso   1.000  C
  C463     1.0000 0.93765  0.86138  0.24633  Biso   1.000  C
  H233     1.0000 0.95617  0.87123  0.30043  Biso   1.000  H
  C464     1.0000 0.90460  0.85863  0.26933  Biso   1.000  C
  H234     1.0000 0.90067  0.86643  0.33893  Biso   1.000  H
  C465     1.0000 0.97985  0.85290  0.12243  Biso   1.000  C
  H235     1.0000 0.97597  0.83043  0.08913  Biso   1.000  H
  H236     1.0000 0.99337  0.85733  0.19163  Biso   1.000  H
  H237     1.0000 0.99347  0.87283  0.07093  Biso   1.000  H
  C466     1.0000 0.68812  0.71481  0.38393  Biso   1.000  C
  C467     1.0000 0.66587  0.73320  0.40133  Biso   1.000  C
  C468     1.0000 0.62950  0.71188  0.42623  Biso   1.000  C
  H238     1.0000 0.61917  0.68653  0.43173  Biso   1.000  H
  C469     1.0000 0.60831  0.72737  0.44293  Biso   1.000  C
  C470     1.0000 0.56795  0.70295  0.46343  Biso   1.000  C
  C471     1.0000 0.66223  0.73652  0.75663  Biso   1.000  C
  C472     1.0000 0.65694  0.76583  0.70193  Biso   1.000  C
  C473     1.0000 0.63512  0.77712  0.75283  Biso   1.000  C
  H239     1.0000 0.62297  0.76613  0.81973  Biso   1.000  H
  C474     1.0000 0.63131  0.80452  0.70543  Biso   1.000  C
  C475     1.0000 0.60838  0.81723  0.76653  Biso   1.000  C
  C476     1.0000 0.74842  0.93496  0.56363  Biso   1.000  C
  C477     1.0000 0.74024  0.89665  0.53853  Biso   1.000  C
  C478     1.0000 0.76785  0.88932  0.55093  Biso   1.000  C
  H240     1.0000 0.79117  0.90803  0.57203  Biso   1.000  H
  C479     1.0000 0.76188  0.85455  0.53273  Biso   1.000  C
  C480     1.0000 0.79356  0.84794  0.55103  Biso   1.000  C
  Dy16     1.0000 0.65930  0.85444  0.20158  Biso   1.000  Dy
  F316     1.0000 0.61993  0.94070  0.20163  Biso   1.000  F
  F317     1.0000 0.62741  0.94313  0.37463  Biso   1.000  F
  F318     1.0000 0.66166  0.98638  0.27473  Biso   1.000  F
  F319     1.0000 0.65252  0.97663  0.20773  Biso   1.000  F
  F320     1.0000 0.61176  0.93039  0.30483  Biso   1.000  F
  F321     1.0000 0.65733  0.97213  0.37753  Biso   1.000  F
  F322     1.0000 0.78461  0.95818  0.27803  Biso   1.000  F
  F323     1.0000 0.77606  0.99843  0.20513  Biso   1.000  F
  F324     1.0000 0.77437  0.95717  0.10473  Biso   1.000  F
  F325     1.0000 0.68067  0.95744  0.97956  Biso   1.000  F
  F326     1.0000 0.69013  0.94341  0.81805  Biso   1.000  F
  F327     1.0000 0.63704  0.91804  0.88453  Biso   1.000  F
  F328     1.0000 0.70952  0.81354  0.90241  Biso   1.000  F
  F329     1.0000 0.75589  0.86068  0.95163  Biso   1.000  F
  F330     1.0000 0.73086  0.85919  0.79613  Biso   1.000  F
  F331     1.0000 0.59934  0.73072  0.00562  Biso   1.000  F
  F332     1.0000 0.59954  0.72027  0.17835  Biso   1.000  F
  F333     1.0000 0.55014  0.70788  0.09763  Biso   1.000  F
  F334     1.0000 0.53594  0.82300  0.00943  Biso   1.000  F
  F335     1.0000 0.50863  0.79116  0.15023  Biso   1.000  F
  F336     1.0000 0.54400  0.84678  0.16983  Biso   1.000  F
  O106     1.0000 0.64035  0.83477  0.38318  Biso   1.000  O
  O107     1.0000 0.65021  0.90018  0.27719  Biso   1.000  O
  O108     1.0000 0.71534  0.90632  0.22231  Biso   1.000  O
  O109     1.0000 0.65954  0.88980  0.05296  Biso   1.000  O
  O110     1.0000 0.68910  0.84611  0.05038  Biso   1.000  O
  O111     1.0000 0.62556  0.79125  0.15623  Biso   1.000  O
  O112     1.0000 0.59978  0.83882  0.16364  Biso   1.000  O
  N31      1.0000 0.64474  0.88746  0.51973  Biso   1.000  N
  N32      1.0000 0.51596  0.83491  0.51983  Biso   1.000  N
  C481     1.0000 0.61168  0.86038  0.48733  Biso   1.000  C
  C482     1.0000 0.60975  0.83214  0.42133  Biso   1.000  C
  C483     1.0000 0.57598  0.80341  0.40013  Biso   1.000  C
  H241     1.0000 0.57377  0.78293  0.36263  Biso   1.000  H
  C484     1.0000 0.54472  0.80387  0.43313  Biso   1.000  C
  H242     1.0000 0.52187  0.78373  0.41683  Biso   1.000  H
  C485     1.0000 0.54648  0.83277  0.48843  Biso   1.000  C
  C486     1.0000 0.58067  0.86140  0.52113  Biso   1.000  C
  C487     1.0000 0.58582  0.89083  0.58693  Biso   1.000  C
  H243     1.0000 0.56547  0.89233  0.61083  Biso   1.000  H
  C488     1.0000 0.61966  0.91717  0.61663  Biso   1.000  C
  H244     1.0000 0.62287  0.93683  0.66093  Biso   1.000  H
  C489     1.0000 0.64900  0.91499  0.58203  Biso   1.000  C
  H245     1.0000 0.67247  0.93323  0.60253  Biso   1.000  H
  C490     1.0000 0.49028  0.82379  0.45033  Biso   1.000  C
  H246     1.0000 0.49337  0.81623  0.37933  Biso   1.000  H
  C491     1.0000 0.45595  0.82212  0.47553  Biso   1.000  C
  C492     1.0000 0.44984  0.83407  0.57603  Biso   1.000  C
  H247     1.0000 0.46847  0.84433  0.62983  Biso   1.000  H
  C493     1.0000 0.41697  0.83110  0.59783  Biso   1.000  C
  H248     1.0000 0.41307  0.83903  0.66723  Biso   1.000  H
  C494     1.0000 0.38940  0.81669  0.52033  Biso   1.000  C
  C495     1.0000 0.39569  0.80528  0.42033  Biso   1.000  C
  H249     1.0000 0.37717  0.79543  0.36623  Biso   1.000  H
  C496     1.0000 0.42874  0.80803  0.39733  Biso   1.000  C
  H250     1.0000 0.43267  0.80023  0.32773  Biso   1.000  H
  C497     1.0000 0.35349  0.81376  0.54423  Biso   1.000  C
  H251     1.0000 0.35737  0.83623  0.57753  Biso   1.000  H
  H252     1.0000 0.33997  0.80933  0.47503  Biso   1.000  H
  H253     1.0000 0.33987  0.79383  0.59573  Biso   1.000  H
  C498     1.0000 0.64522  0.95185  0.28273  Biso   1.000  C
  C499     1.0000 0.66747  0.93346  0.26533  Biso   1.000  C
  C500     1.0000 0.70384  0.95478  0.24043  Biso   1.000  C
  H254     1.0000 0.71417  0.98013  0.23493  Biso   1.000  H
  C501     1.0000 0.72503  0.93929  0.22373  Biso   1.000  C
  C502     1.0000 0.76539  0.96371  0.20323  Biso   1.000  C
  C503     1.0000 0.67111  0.93014  0.91003  Biso   1.000  C
  C504     1.0000 0.67640  0.90083  0.96473  Biso   1.000  C
  C505     1.0000 0.69822  0.88954  0.91383  Biso   1.000  C
  H255     1.0000 0.71037  0.90053  0.84693  Biso   1.000  H
  C506     1.0000 0.70203  0.86214  0.96123  Biso   1.000  C
  C507     1.0000 0.72496  0.84943  0.90013  Biso   1.000  C
  C508     1.0000 0.58492  0.73170  0.10303  Biso   1.000  C
  C509     1.0000 0.59310  0.77001  0.12813  Biso   1.000  C
  C510     1.0000 0.56549  0.77734  0.11573  Biso   1.000  C
  H256     1.0000 0.54217  0.75863  0.09463  Biso   1.000  H
  C511     1.0000 0.57146  0.81211  0.13393  Biso   1.000  C
  C512     1.0000 0.53978  0.81872  0.11563  Biso   1.000  C
  Dy17     1.0000 0.34070  0.14556  0.79842  Biso   1.000  Dy
  F337     1.0000 0.38007  0.05930  0.79837  Biso   1.000  F
  F338     1.0000 0.37259  0.05687  0.62537  Biso   1.000  F
  F339     1.0000 0.33834  0.01362  0.72527  Biso   1.000  F
  F340     1.0000 0.34748  0.02337  0.79227  Biso   1.000  F
  F341     1.0000 0.38824  0.06961  0.69517  Biso   1.000  F
  F342     1.0000 0.34267  0.02787  0.62247  Biso   1.000  F
  F343     1.0000 0.21539  0.04182  0.72197  Biso   1.000  F
  F344     1.0000 0.22394  0.00157  0.79487  Biso   1.000  F
  F345     1.0000 0.22563  0.04283  0.89527  Biso   1.000  F
  F346     1.0000 0.31933  0.04256  0.02044  Biso   1.000  F
  F347     1.0000 0.30987  0.05659  0.18195  Biso   1.000  F
  F348     1.0000 0.36296  0.08196  0.11547  Biso   1.000  F
  F349     1.0000 0.29048  0.18646  0.09759  Biso   1.000  F
  F350     1.0000 0.24411  0.13932  0.04837  Biso   1.000  F
  F351     1.0000 0.26914  0.14081  0.20387  Biso   1.000  F
  F352     1.0000 0.40066  0.26928  0.99438  Biso   1.000  F
  F353     1.0000 0.40046  0.27973  0.82165  Biso   1.000  F
  F354     1.0000 0.44986  0.29212  0.90237  Biso   1.000  F
  F355     1.0000 0.46406  0.17700  0.99057  Biso   1.000  F
  F356     1.0000 0.49137  0.20884  0.84977  Biso   1.000  F
  F357     1.0000 0.45600  0.15322  0.83017  Biso   1.000  F
  O113     1.0000 0.35965  0.16523  0.61682  Biso   1.000  O
  O114     1.0000 0.34979  0.09982  0.72281  Biso   1.000  O
  O115     1.0000 0.28466  0.09368  0.77769  Biso   1.000  O
  O116     1.0000 0.34046  0.11020  0.94704  Biso   1.000  O
  O117     1.0000 0.31090  0.15389  0.94962  Biso   1.000  O
  O118     1.0000 0.37444  0.20875  0.84377  Biso   1.000  O
  O119     1.0000 0.40022  0.16118  0.83636  Biso   1.000  O
  N33      1.0000 0.35526  0.11254  0.48027  Biso   1.000  N
  N34      1.0000 0.48404  0.16509  0.48017  Biso   1.000  N
  C513     1.0000 0.38832  0.13962  0.51267  Biso   1.000  C
  C514     1.0000 0.39025  0.16786  0.57867  Biso   1.000  C
  C515     1.0000 0.42402  0.19659  0.59987  Biso   1.000  C
  H257     1.0000 0.42623  0.21707  0.63737  Biso   1.000  H
  C516     1.0000 0.45528  0.19613  0.56687  Biso   1.000  C
  H258     1.0000 0.47813  0.21627  0.58317  Biso   1.000  H
  C517     1.0000 0.45352  0.16723  0.51157  Biso   1.000  C
  C518     1.0000 0.41933  0.13860  0.47887  Biso   1.000  C
  C519     1.0000 0.41418  0.10917  0.41307  Biso   1.000  C
  H259     1.0000 0.43453  0.10767  0.38917  Biso   1.000  H
  C520     1.0000 0.38034  0.08283  0.38337  Biso   1.000  C
  H260     1.0000 0.37713  0.06317  0.33907  Biso   1.000  H
  C521     1.0000 0.35100  0.08501  0.41797  Biso   1.000  C
  H261     1.0000 0.32753  0.06677  0.39747  Biso   1.000  H
  C522     1.0000 0.50972  0.17621  0.54967  Biso   1.000  C
  H262     1.0000 0.50663  0.18377  0.62067  Biso   1.000  H
  C523     1.0000 0.54405  0.17788  0.52447  Biso   1.000  C
  C524     1.0000 0.55016  0.16593  0.42397  Biso   1.000  C
  H263     1.0000 0.53153  0.15567  0.37017  Biso   1.000  H
  C525     1.0000 0.58303  0.16890  0.40217  Biso   1.000  C
  H264     1.0000 0.58693  0.16097  0.33277  Biso   1.000  H
  C526     1.0000 0.61060  0.18331  0.47967  Biso   1.000  C
  C527     1.0000 0.60431  0.19472  0.57967  Biso   1.000  C
  H265     1.0000 0.62283  0.20457  0.63377  Biso   1.000  H
  C528     1.0000 0.57126  0.19197  0.60267  Biso   1.000  C
  H266     1.0000 0.56733  0.19977  0.67227  Biso   1.000  H
  C529     1.0000 0.64651  0.18624  0.45577  Biso   1.000  C
  H267     1.0000 0.64263  0.16377  0.42247  Biso   1.000  H
  H268     1.0000 0.66003  0.19067  0.52497  Biso   1.000  H
  H269     1.0000 0.66013  0.20617  0.40427  Biso   1.000  H
  C530     1.0000 0.35478  0.04815  0.71727  Biso   1.000  C
  C531     1.0000 0.33253  0.06654  0.73467  Biso   1.000  C
  C532     1.0000 0.29616  0.04522  0.75957  Biso   1.000  C
  H270     1.0000 0.28583  0.01987  0.76507  Biso   1.000  H
  C533     1.0000 0.27497  0.06071  0.77627  Biso   1.000  C
  C534     1.0000 0.23461  0.03629  0.79677  Biso   1.000  C
  C535     1.0000 0.32889  0.06986  0.08997  Biso   1.000  C
  C536     1.0000 0.32360  0.09917  0.03527  Biso   1.000  C
  C537     1.0000 0.30178  0.11046  0.08617  Biso   1.000  C
  H271     1.0000 0.28963  0.09947  0.15307  Biso   1.000  H
  C538     1.0000 0.29797  0.13786  0.03877  Biso   1.000  C
  C539     1.0000 0.27504  0.15057  0.09987  Biso   1.000  C
  C540     1.0000 0.41508  0.26830  0.89697  Biso   1.000  C
  C541     1.0000 0.40690  0.22999  0.87187  Biso   1.000  C
  C542     1.0000 0.43451  0.22266  0.88427  Biso   1.000  C
  H272     1.0000 0.45783  0.24137  0.90537  Biso   1.000  H
  C543     1.0000 0.42854  0.18789  0.86607  Biso   1.000  C
  C544     1.0000 0.46022  0.18128  0.88437  Biso   1.000  C
  Dy18     1.0000 0.32597  0.18777  0.53491  Biso   1.000  Dy
  F358     1.0000 0.28659  0.27404  0.53497  Biso   1.000  F
  F359     1.0000 0.29407  0.27647  0.70797  Biso   1.000  F
  F360     1.0000 0.32832  0.31972  0.60807  Biso   1.000  F
  F361     1.0000 0.31918  0.30997  0.54107  Biso   1.000  F
  F362     1.0000 0.27842  0.26373  0.63817  Biso   1.000  F
  F363     1.0000 0.32399  0.30547  0.71087  Biso   1.000  F
  F364     1.0000 0.45127  0.29152  0.61137  Biso   1.000  F
  F365     1.0000 0.44272  0.33177  0.53847  Biso   1.000  F
  F366     1.0000 0.44103  0.29051  0.43807  Biso   1.000  F
  F367     1.0000 0.34733  0.29078  0.31290  Biso   1.000  F
  F368     1.0000 0.35679  0.27675  0.15139  Biso   1.000  F
  F369     1.0000 0.30370  0.25138  0.21787  Biso   1.000  F
  F370     1.0000 0.37618  0.14688  0.23575  Biso   1.000  F
  F371     1.0000 0.42255  0.19402  0.28497  Biso   1.000  F
  F372     1.0000 0.39752  0.19253  0.12947  Biso   1.000  F
  F373     1.0000 0.26600  0.06406  0.33896  Biso   1.000  F
  F374     1.0000 0.26620  0.05361  0.51169  Biso   1.000  F
  F375     1.0000 0.21680  0.04122  0.43097  Biso   1.000  F
  F376     1.0000 0.20260  0.15634  0.34277  Biso   1.000  F
  F377     1.0000 0.17529  0.12450  0.48357  Biso   1.000  F
  F378     1.0000 0.21066  0.18012  0.50317  Biso   1.000  F
  O120     1.0000 0.30701  0.16811  0.71652  Biso   1.000  O
  O121     1.0000 0.31687  0.23352  0.61053  Biso   1.000  O
  O122     1.0000 0.38200  0.23966  0.55565  Biso   1.000  O
  O123     1.0000 0.32620  0.22314  0.38630  Biso   1.000  O
  O124     1.0000 0.35576  0.17945  0.38372  Biso   1.000  O
  O125     1.0000 0.29222  0.12459  0.48957  Biso   1.000  O
  O126     1.0000 0.26644  0.17216  0.49698  Biso   1.000  O
  N35      1.0000 0.31140  0.22080  0.85307  Biso   1.000  N
  N36      1.0000 0.18262  0.16825  0.85317  Biso   1.000  N
  C545     1.0000 0.27834  0.19372  0.82067  Biso   1.000  C
  C546     1.0000 0.27641  0.16548  0.75467  Biso   1.000  C
  C547     1.0000 0.24264  0.13675  0.73347  Biso   1.000  C
  H273     1.0000 0.24043  0.11627  0.69597  Biso   1.000  H
  C548     1.0000 0.21138  0.13721  0.76647  Biso   1.000  C
  H274     1.0000 0.18853  0.11707  0.75017  Biso   1.000  H
  C549     1.0000 0.21314  0.16611  0.82177  Biso   1.000  C
  C550     1.0000 0.24733  0.19474  0.85447  Biso   1.000  C
  C551     1.0000 0.25248  0.22417  0.92027  Biso   1.000  C
  H275     1.0000 0.23213  0.22567  0.94417  Biso   1.000  H
  C552     1.0000 0.28632  0.25051  0.94997  Biso   1.000  C
  H276     1.0000 0.28953  0.27017  0.99427  Biso   1.000  H
  C553     1.0000 0.31566  0.24833  0.91537  Biso   1.000  C
  H277     1.0000 0.33913  0.26657  0.93587  Biso   1.000  H
  C554     1.0000 0.15694  0.15713  0.78367  Biso   1.000  C
  H278     1.0000 0.16003  0.14957  0.71267  Biso   1.000  H
  C555     1.0000 0.12261  0.15546  0.80887  Biso   1.000  C
  C556     1.0000 0.11650  0.16741  0.90937  Biso   1.000  C
  H279     1.0000 0.13513  0.17767  0.96317  Biso   1.000  H
  C557     1.0000 0.08363  0.16444  0.93117  Biso   1.000  C
  H280     1.0000 0.07973  0.17237  0.00057  Biso   1.000  H
  C558     1.0000 0.05606  0.15003  0.85367  Biso   1.000  C
  C559     1.0000 0.06235  0.13862  0.75367  Biso   1.000  C
  H281     1.0000 0.04383  0.12877  0.69957  Biso   1.000  H
  C560     1.0000 0.09540  0.14137  0.73067  Biso   1.000  C
  H282     1.0000 0.09933  0.13357  0.66107  Biso   1.000  H
  C561     1.0000 0.02015  0.14710  0.87757  Biso   1.000  C
  H283     1.0000 0.02403  0.16957  0.91087  Biso   1.000  H
  H284     1.0000 0.00663  0.14267  0.80837  Biso   1.000  H
  H285     1.0000 0.00653  0.12717  0.92907  Biso   1.000  H
  C562     1.0000 0.31188  0.28519  0.61607  Biso   1.000  C
  C563     1.0000 0.33413  0.26680  0.59867  Biso   1.000  C
  C564     1.0000 0.37050  0.28812  0.57377  Biso   1.000  C
  H286     1.0000 0.38083  0.31347  0.56827  Biso   1.000  H
  C565     1.0000 0.39169  0.27263  0.55707  Biso   1.000  C
  C566     1.0000 0.43205  0.29705  0.53657  Biso   1.000  C
  C567     1.0000 0.33777  0.26348  0.24337  Biso   1.000  C
  C568     1.0000 0.34306  0.23417  0.29807  Biso   1.000  C
  C569     1.0000 0.36488  0.22288  0.24717  Biso   1.000  C
  H287     1.0000 0.37703  0.23387  0.18027  Biso   1.000  H
  C570     1.0000 0.36869  0.19548  0.29457  Biso   1.000  C
  C571     1.0000 0.39162  0.18277  0.23347  Biso   1.000  C
  C572     1.0000 0.25158  0.06504  0.43637  Biso   1.000  C
  C573     1.0000 0.25976  0.10335  0.46147  Biso   1.000  C
  C574     1.0000 0.23215  0.11068  0.44907  Biso   1.000  C
  H288     1.0000 0.20883  0.09197  0.42797  Biso   1.000  H
  C575     1.0000 0.23812  0.14545  0.46727  Biso   1.000  C
  C576     1.0000 0.20644  0.15206  0.44897  Biso   1.000  C
