data_image0
_cell_length_a       43.04
_cell_length_b       43.04
_cell_length_c       12.0739
_cell_angle_alpha    90
_cell_angle_beta     90
_cell_angle_gamma    120

_symmetry_space_group_name_H-M    "P 1"
_symmetry_int_tables_number       1

loop_
  _symmetry_equiv_pos_as_xyz
  'x, y, z'

loop_
  _atom_site_label
  _atom_site_occupancy
  _atom_site_fract_x
  _atom_site_fract_y
  _atom_site_fract_z
  _atom_site_thermal_displace_type
  _atom_site_B_iso_or_equiv
  _atom_site_type_symbol
  Gd1      1.0000 0.18797  0.32610  0.46572  Biso   1.000  Gd
  F1       1.0000 0.31987  0.32867  0.38920  Biso   1.000  F
  F2       1.0000 0.27585  0.29336  0.29730  Biso   1.000  F
  F3       1.0000 0.27564  0.28811  0.47010  Biso   1.000  F
  F4       1.0000 0.29144  0.44099  0.56180  Biso   1.000  F
  F5       1.0000 0.33183  0.44271  0.45920  Biso   1.000  F
  F6       1.0000 0.29159  0.45118  0.38890  Biso   1.000  F
  F7       1.0000 0.25233  0.30522  0.78277  Biso   1.000  F
  F8       1.0000 0.29140  0.34937  0.68923  Biso   1.000  F
  F9       1.0000 0.27668  0.35783  0.85034  Biso   1.000  F
  F10      1.0000 0.19253  0.42179  0.71490  Biso   1.000  F
  F11      1.0000 0.19227  0.39797  0.87052  Biso   1.000  F
  F12      1.0000 0.14625  0.37557  0.76517  Biso   1.000  F
  F13      1.0000 0.06390  0.26462  0.66071  Biso   1.000  F
  F14      1.0000 0.04182  0.21622  0.56650  Biso   1.000  F
  F15      1.0000 0.05390  0.26567  0.48908  Biso   1.000  F
  F16      1.0000 0.15675  0.20269  0.65700  Biso   1.000  F
  F17      1.0000 0.12508  0.17544  0.51630  Biso   1.000  F
  F18      1.0000 0.18051  0.21087  0.49740  Biso   1.000  F
  O1       1.0000 0.16831  0.30709  0.28325  Biso   1.000  O
  O2       1.0000 0.23394  0.31705  0.39049  Biso   1.000  O
  O3       1.0000 0.23995  0.38211  0.44430  Biso   1.000  O
  O4       1.0000 0.22358  0.32703  0.61528  Biso   1.000  O
  O5       1.0000 0.17954  0.35602  0.61681  Biso   1.000  O
  O6       1.0000 0.12461  0.29210  0.51031  Biso   1.000  O
  O7       1.0000 0.17243  0.26651  0.50491  Biso   1.000  O
  N1       1.0000 0.22105  0.31196  0.14758  Biso   1.000  N
  N2       1.0000 0.16962  0.18363  0.14680  Biso   1.000  N
  C1       1.0000 0.19436  0.27895  0.17970  Biso   1.000  C
  C2       1.0000 0.16598  0.27667  0.24580  Biso   1.000  C
  C3       1.0000 0.13764  0.24306  0.26680  Biso   1.000  C
  H1       1.0000 0.11760  0.24070  0.30350  Biso   1.000  H
  C4       1.0000 0.13837  0.21207  0.23380  Biso   1.000  C
  H2       1.0000 0.11880  0.18970  0.24970  Biso   1.000  H
  C5       1.0000 0.16724  0.21395  0.17880  Biso   1.000  C
  C6       1.0000 0.19549  0.24804  0.14550  Biso   1.000  C
  C7       1.0000 0.22498  0.25352  0.07990  Biso   1.000  C
  H3       1.0000 0.22670  0.23380  0.05680  Biso   1.000  H
  C8       1.0000 0.25092  0.28717  0.04990  Biso   1.000  C
  H4       1.0000 0.27010  0.29040  0.00610  Biso   1.000  H
  C9       1.0000 0.24854  0.31660  0.08510  Biso   1.000  C
  H5       1.0000 0.26620  0.33960  0.06490  Biso   1.000  H
  C10      1.0000 0.15856  0.15790  0.21500  Biso   1.000  C
  H6       1.0000 0.15110  0.16070  0.28460  Biso   1.000  H
  C11      1.0000 0.15697  0.12377  0.18910  Biso   1.000  C
  C12      1.0000 0.14327  0.09664  0.26700  Biso   1.000  C
  H7       1.0000 0.13590  0.10050  0.33540  Biso   1.000  H
  C13      1.0000 0.14041  0.06367  0.24420  Biso   1.000  C
  H8       1.0000 0.13070  0.04550  0.29690  Biso   1.000  H
  C14      1.0000 0.15191  0.05762  0.14370  Biso   1.000  C
  C15      1.0000 0.16594  0.08516  0.06650  Biso   1.000  C
  H9       1.0000 0.17370  0.08150  0.99830  Biso   1.000  H
  C16      1.0000 0.16859  0.11797  0.08890  Biso   1.000  C
  H10      1.0000 0.17830  0.13610  0.03620  Biso   1.000  H
  C17      1.0000 0.14948  0.02214  0.11900  Biso   1.000  C
  H11      1.0000 0.17220  0.02620  0.09230  Biso   1.000  H
  H12      1.0000 0.13150  0.00960  0.06350  Biso   1.000  H
  H13      1.0000 0.14320  0.00800  0.18530  Biso   1.000  H
  C18      1.0000 0.28566  0.31202  0.38370  Biso   1.000  C
  C19      1.0000 0.26720  0.33439  0.40150  Biso   1.000  C
  C20      1.0000 0.28837  0.37066  0.42500  Biso   1.000  C
  H14      1.0000 0.31310  0.38080  0.42940  Biso   1.000  H
  C21      1.0000 0.27298  0.39191  0.44210  Biso   1.000  C
  C22      1.0000 0.29733  0.43198  0.46190  Biso   1.000  C
  C23      1.0000 0.26393  0.33900  0.75810  Biso   1.000  C
  C24      1.0000 0.23441  0.34386  0.70320  Biso   1.000  C
  C25      1.0000 0.22292  0.36550  0.75370  Biso   1.000  C
  H15      1.0000 0.23360  0.37740  0.81920  Biso   1.000  H
  C26      1.0000 0.19543  0.36923  0.70580  Biso   1.000  C
  C27      1.0000 0.18236  0.39156  0.76720  Biso   1.000  C
  C28      1.0000 0.06540  0.25089  0.56290  Biso   1.000  C
  C29      1.0000 0.10377  0.25977  0.53850  Biso   1.000  C
  C30      1.0000 0.11150  0.23229  0.55100  Biso   1.000  C
  H16      1.0000 0.09340  0.20960  0.57180  Biso   1.000  H
  C31      1.0000 0.14588  0.23826  0.53310  Biso   1.000  C
  C32      1.0000 0.15246  0.20644  0.55140  Biso   1.000  C
  F19      1.0000 0.31088  0.32065  0.45670  Biso   1.000  F
  F20      1.0000 0.30466  0.32353  0.28920  Biso   1.000  F
  F21      1.0000 0.26504  0.27920  0.37040  Biso   1.000  F
  Gd2      1.0000 0.14537  0.34057  0.20094  Biso   1.000  Gd
  F22      1.0000 0.01346  0.33800  0.27747  Biso   1.000  F
  F23      1.0000 0.05748  0.37331  0.36937  Biso   1.000  F
  F24      1.0000 0.05769  0.37856  0.19657  Biso   1.000  F
  F25      1.0000 0.04189  0.22568  0.10487  Biso   1.000  F
  F26      1.0000 0.00150  0.22396  0.20747  Biso   1.000  F
  F27      1.0000 0.04174  0.21549  0.27777  Biso   1.000  F
  F28      1.0000 0.08100  0.36145  0.88390  Biso   1.000  F
  F29      1.0000 0.04193  0.31730  0.97744  Biso   1.000  F
  F30      1.0000 0.05665  0.30884  0.81633  Biso   1.000  F
  F31      1.0000 0.14080  0.24488  0.95177  Biso   1.000  F
  F32      1.0000 0.14106  0.26870  0.79615  Biso   1.000  F
  F33      1.0000 0.18708  0.29110  0.90150  Biso   1.000  F
  F34      1.0000 0.26943  0.40205  0.00596  Biso   1.000  F
  F35      1.0000 0.29151  0.45045  0.10017  Biso   1.000  F
  F36      1.0000 0.27943  0.40100  0.17759  Biso   1.000  F
  F37      1.0000 0.17658  0.46398  0.00967  Biso   1.000  F
  F38      1.0000 0.20825  0.49123  0.15037  Biso   1.000  F
  F39      1.0000 0.15282  0.45580  0.16927  Biso   1.000  F
  O8       1.0000 0.16502  0.35958  0.38342  Biso   1.000  O
  O9       1.0000 0.09939  0.34962  0.27618  Biso   1.000  O
  O10      1.0000 0.09338  0.28456  0.22237  Biso   1.000  O
  O11      1.0000 0.10975  0.33964  0.05139  Biso   1.000  O
  O12      1.0000 0.15379  0.31065  0.04986  Biso   1.000  O
  O13      1.0000 0.20872  0.37457  0.15636  Biso   1.000  O
  O14      1.0000 0.16090  0.40016  0.16176  Biso   1.000  O
  N3       1.0000 0.11228  0.35471  0.51909  Biso   1.000  N
  N4       1.0000 0.16371  0.48304  0.51987  Biso   1.000  N
  C33      1.0000 0.13897  0.38772  0.48697  Biso   1.000  C
  C34      1.0000 0.16735  0.39000  0.42087  Biso   1.000  C
  C35      1.0000 0.19569  0.42361  0.39987  Biso   1.000  C
  H17      1.0000 0.21573  0.42597  0.36317  Biso   1.000  H
  C36      1.0000 0.19496  0.45460  0.43287  Biso   1.000  C
  H18      1.0000 0.21453  0.47697  0.41697  Biso   1.000  H
  C37      1.0000 0.16609  0.45272  0.48787  Biso   1.000  C
  C38      1.0000 0.13784  0.41863  0.52117  Biso   1.000  C
  C39      1.0000 0.10835  0.41315  0.58677  Biso   1.000  C
  H19      1.0000 0.10663  0.43287  0.60987  Biso   1.000  H
  C40      1.0000 0.08241  0.37950  0.61677  Biso   1.000  C
  H20      1.0000 0.06323  0.37627  0.66057  Biso   1.000  H
  C41      1.0000 0.08479  0.35007  0.58157  Biso   1.000  C
  H21      1.0000 0.06713  0.32707  0.60177  Biso   1.000  H
  C42      1.0000 0.17477  0.50877  0.45167  Biso   1.000  C
  H22      1.0000 0.18223  0.50597  0.38207  Biso   1.000  H
  C43      1.0000 0.17636  0.54290  0.47757  Biso   1.000  C
  C44      1.0000 0.19006  0.57003  0.39967  Biso   1.000  C
  H23      1.0000 0.19743  0.56617  0.33127  Biso   1.000  H
  C45      1.0000 0.19292  0.60300  0.42247  Biso   1.000  C
  H24      1.0000 0.20263  0.62117  0.36977  Biso   1.000  H
  C46      1.0000 0.18142  0.60905  0.52297  Biso   1.000  C
  C47      1.0000 0.16739  0.58151  0.60017  Biso   1.000  C
  H25      1.0000 0.15963  0.58517  0.66837  Biso   1.000  H
  C48      1.0000 0.16474  0.54870  0.57777  Biso   1.000  C
  H26      1.0000 0.15503  0.53057  0.63047  Biso   1.000  H
  C49      1.0000 0.18385  0.64453  0.54767  Biso   1.000  C
  H27      1.0000 0.16113  0.64047  0.57437  Biso   1.000  H
  H28      1.0000 0.20183  0.65707  0.60317  Biso   1.000  H
  H29      1.0000 0.19013  0.65867  0.48137  Biso   1.000  H
  C50      1.0000 0.04767  0.35465  0.28297  Biso   1.000  C
  C51      1.0000 0.06613  0.33228  0.26517  Biso   1.000  C
  C52      1.0000 0.04496  0.29601  0.24167  Biso   1.000  C
  H30      1.0000 0.02023  0.28587  0.23727  Biso   1.000  H
  C53      1.0000 0.06035  0.27476  0.22457  Biso   1.000  C
  C54      1.0000 0.03600  0.23469  0.20477  Biso   1.000  C
  C55      1.0000 0.06940  0.32767  0.90857  Biso   1.000  C
  C56      1.0000 0.09892  0.32281  0.96347  Biso   1.000  C
  C57      1.0000 0.11041  0.30117  0.91297  Biso   1.000  C
  H31      1.0000 0.09973  0.28927  0.84747  Biso   1.000  H
  C58      1.0000 0.13790  0.29744  0.96087  Biso   1.000  C
  C59      1.0000 0.15097  0.27511  0.89947  Biso   1.000  C
  C60      1.0000 0.26793  0.41578  0.10377  Biso   1.000  C
  C61      1.0000 0.22956  0.40690  0.12817  Biso   1.000  C
  C62      1.0000 0.22183  0.43438  0.11567  Biso   1.000  C
  H32      1.0000 0.23993  0.45707  0.09487  Biso   1.000  H
  C63      1.0000 0.18745  0.42841  0.13357  Biso   1.000  C
  C64      1.0000 0.18087  0.46023  0.11527  Biso   1.000  C
  F40      1.0000 0.02245  0.34602  0.20997  Biso   1.000  F
  F41      1.0000 0.02867  0.34314  0.37747  Biso   1.000  F
  F42      1.0000 0.06829  0.38747  0.29627  Biso   1.000  F
  Gd3      1.0000 0.85463  0.65943  0.79906  Biso   1.000  Gd
  F43      1.0000 0.98654  0.66200  0.72253  Biso   1.000  F
  F44      1.0000 0.94252  0.62669  0.63063  Biso   1.000  F
  F45      1.0000 0.94231  0.62144  0.80343  Biso   1.000  F
  F46      1.0000 0.95811  0.77432  0.89513  Biso   1.000  F
  F47      1.0000 0.99850  0.77604  0.79253  Biso   1.000  F
  F48      1.0000 0.95826  0.78451  0.72223  Biso   1.000  F
  F49      1.0000 0.91900  0.63855  0.11610  Biso   1.000  F
  F50      1.0000 0.95807  0.68270  0.02256  Biso   1.000  F
  F51      1.0000 0.94335  0.69116  0.18367  Biso   1.000  F
  F52      1.0000 0.85920  0.75512  0.04823  Biso   1.000  F
  F53      1.0000 0.85894  0.73130  0.20385  Biso   1.000  F
  F54      1.0000 0.81292  0.70890  0.09850  Biso   1.000  F
  F55      1.0000 0.73057  0.59795  0.99404  Biso   1.000  F
  F56      1.0000 0.70849  0.54955  0.89983  Biso   1.000  F
  F57      1.0000 0.72057  0.59900  0.82241  Biso   1.000  F
  F58      1.0000 0.82342  0.53602  0.99033  Biso   1.000  F
  F59      1.0000 0.79175  0.50877  0.84963  Biso   1.000  F
  F60      1.0000 0.84718  0.54420  0.83073  Biso   1.000  F
  O15      1.0000 0.83498  0.64042  0.61658  Biso   1.000  O
  O16      1.0000 0.90061  0.65038  0.72382  Biso   1.000  O
  O17      1.0000 0.90662  0.71544  0.77763  Biso   1.000  O
  O18      1.0000 0.89025  0.66036  0.94861  Biso   1.000  O
  O19      1.0000 0.84621  0.68935  0.95014  Biso   1.000  O
  O20      1.0000 0.79128  0.62543  0.84364  Biso   1.000  O
  O21      1.0000 0.83910  0.59984  0.83824  Biso   1.000  O
  N5       1.0000 0.88772  0.64529  0.48091  Biso   1.000  N
  N6       1.0000 0.83629  0.51696  0.48013  Biso   1.000  N
  C65      1.0000 0.86103  0.61228  0.51303  Biso   1.000  C
  C66      1.0000 0.83265  0.61000  0.57913  Biso   1.000  C
  C67      1.0000 0.80431  0.57639  0.60013  Biso   1.000  C
  H33      1.0000 0.78427  0.57403  0.63683  Biso   1.000  H
  C68      1.0000 0.80504  0.54540  0.56713  Biso   1.000  C
  H34      1.0000 0.78547  0.52303  0.58303  Biso   1.000  H
  C69      1.0000 0.83391  0.54728  0.51213  Biso   1.000  C
  C70      1.0000 0.86216  0.58137  0.47883  Biso   1.000  C
  C71      1.0000 0.89165  0.58685  0.41323  Biso   1.000  C
  H35      1.0000 0.89337  0.56713  0.39013  Biso   1.000  H
  C72      1.0000 0.91759  0.62050  0.38323  Biso   1.000  C
  H36      1.0000 0.93677  0.62373  0.33943  Biso   1.000  H
  C73      1.0000 0.91521  0.64993  0.41843  Biso   1.000  C
  H37      1.0000 0.93287  0.67293  0.39823  Biso   1.000  H
  C74      1.0000 0.82523  0.49123  0.54833  Biso   1.000  C
  H38      1.0000 0.81777  0.49403  0.61793  Biso   1.000  H
  C75      1.0000 0.82364  0.45710  0.52243  Biso   1.000  C
  C76      1.0000 0.80994  0.42997  0.60033  Biso   1.000  C
  H39      1.0000 0.80257  0.43383  0.66873  Biso   1.000  H
  C77      1.0000 0.80708  0.39700  0.57753  Biso   1.000  C
  H40      1.0000 0.79737  0.37883  0.63023  Biso   1.000  H
  C78      1.0000 0.81858  0.39095  0.47703  Biso   1.000  C
  C79      1.0000 0.83261  0.41849  0.39983  Biso   1.000  C
  H41      1.0000 0.84037  0.41483  0.33163  Biso   1.000  H
  C80      1.0000 0.83526  0.45130  0.42223  Biso   1.000  C
  H42      1.0000 0.84497  0.46943  0.36953  Biso   1.000  H
  C81      1.0000 0.81615  0.35547  0.45233  Biso   1.000  C
  H43      1.0000 0.83887  0.35953  0.42563  Biso   1.000  H
  H44      1.0000 0.79817  0.34293  0.39683  Biso   1.000  H
  H45      1.0000 0.80987  0.34133  0.51863  Biso   1.000  H
  C82      1.0000 0.95233  0.64535  0.71703  Biso   1.000  C
  C83      1.0000 0.93387  0.66772  0.73483  Biso   1.000  C
  C84      1.0000 0.95504  0.70399  0.75833  Biso   1.000  C
  H46      1.0000 0.97977  0.71413  0.76273  Biso   1.000  H
  C85      1.0000 0.93965  0.72524  0.77543  Biso   1.000  C
  C86      1.0000 0.96400  0.76531  0.79523  Biso   1.000  C
  C87      1.0000 0.93060  0.67233  0.09143  Biso   1.000  C
  C88      1.0000 0.90108  0.67719  0.03653  Biso   1.000  C
  C89      1.0000 0.88959  0.69883  0.08703  Biso   1.000  C
  H47      1.0000 0.90027  0.71073  0.15253  Biso   1.000  H
  C90      1.0000 0.86210  0.70256  0.03913  Biso   1.000  C
  C91      1.0000 0.84903  0.72489  0.10053  Biso   1.000  C
  C92      1.0000 0.73207  0.58422  0.89623  Biso   1.000  C
  C93      1.0000 0.77044  0.59310  0.87183  Biso   1.000  C
  C94      1.0000 0.77817  0.56562  0.88433  Biso   1.000  C
  H48      1.0000 0.76007  0.54293  0.90513  Biso   1.000  H
  C95      1.0000 0.81255  0.57159  0.86643  Biso   1.000  C
  C96      1.0000 0.81913  0.53977  0.88473  Biso   1.000  C
  F61      1.0000 0.97755  0.65398  0.79003  Biso   1.000  F
  F62      1.0000 0.97133  0.65686  0.62253  Biso   1.000  F
  F63      1.0000 0.93171  0.61253  0.70373  Biso   1.000  F
  Gd4      1.0000 0.81203  0.67390  0.53428  Biso   1.000  Gd
  F64      1.0000 0.68013  0.67133  0.61080  Biso   1.000  F
  F65      1.0000 0.72415  0.70664  0.70270  Biso   1.000  F
  F66      1.0000 0.72436  0.71189  0.52990  Biso   1.000  F
  F67      1.0000 0.70856  0.55901  0.43820  Biso   1.000  F
  F68      1.0000 0.66817  0.55729  0.54080  Biso   1.000  F
  F69      1.0000 0.70841  0.54882  0.61110  Biso   1.000  F
  F70      1.0000 0.74767  0.69478  0.21723  Biso   1.000  F
  F71      1.0000 0.70860  0.65063  0.31077  Biso   1.000  F
  F72      1.0000 0.72332  0.64217  0.14966  Biso   1.000  F
  F73      1.0000 0.80747  0.57821  0.28510  Biso   1.000  F
  F74      1.0000 0.80773  0.60203  0.12948  Biso   1.000  F
  F75      1.0000 0.85375  0.62443  0.23483  Biso   1.000  F
  F76      1.0000 0.93610  0.73538  0.33929  Biso   1.000  F
  F77      1.0000 0.95818  0.78378  0.43350  Biso   1.000  F
  F78      1.0000 0.94610  0.73433  0.51092  Biso   1.000  F
  F79      1.0000 0.84325  0.79731  0.34300  Biso   1.000  F
  F80      1.0000 0.87492  0.82456  0.48370  Biso   1.000  F
  F81      1.0000 0.81949  0.78913  0.50260  Biso   1.000  F
  O22      1.0000 0.83169  0.69291  0.71675  Biso   1.000  O
  O23      1.0000 0.76606  0.68295  0.60951  Biso   1.000  O
  O24      1.0000 0.76005  0.61789  0.55570  Biso   1.000  O
  O25      1.0000 0.77642  0.67297  0.38472  Biso   1.000  O
  O26      1.0000 0.82046  0.64398  0.38319  Biso   1.000  O
  O27      1.0000 0.87539  0.70790  0.48969  Biso   1.000  O
  O28      1.0000 0.82757  0.73349  0.49509  Biso   1.000  O
  N7       1.0000 0.77895  0.68804  0.85242  Biso   1.000  N
  N8       1.0000 0.83038  0.81637  0.85320  Biso   1.000  N
  C97      1.0000 0.80564  0.72105  0.82030  Biso   1.000  C
  C98      1.0000 0.83402  0.72333  0.75420  Biso   1.000  C
  C99      1.0000 0.86236  0.75694  0.73320  Biso   1.000  C
  H49      1.0000 0.88240  0.75930  0.69650  Biso   1.000  H
  C100     1.0000 0.86163  0.78793  0.76620  Biso   1.000  C
  H50      1.0000 0.88120  0.81030  0.75030  Biso   1.000  H
  C101     1.0000 0.83276  0.78605  0.82120  Biso   1.000  C
  C102     1.0000 0.80451  0.75196  0.85450  Biso   1.000  C
  C103     1.0000 0.77502  0.74648  0.92010  Biso   1.000  C
  H51      1.0000 0.77330  0.76620  0.94320  Biso   1.000  H
  C104     1.0000 0.74908  0.71283  0.95010  Biso   1.000  C
  H52      1.0000 0.72990  0.70960  0.99390  Biso   1.000  H
  C105     1.0000 0.75146  0.68340  0.91490  Biso   1.000  C
  H53      1.0000 0.73380  0.66040  0.93510  Biso   1.000  H
  C106     1.0000 0.84144  0.84210  0.78500  Biso   1.000  C
  H54      1.0000 0.84890  0.83930  0.71540  Biso   1.000  H
  C107     1.0000 0.84303  0.87623  0.81090  Biso   1.000  C
  C108     1.0000 0.85673  0.90336  0.73300  Biso   1.000  C
  H55      1.0000 0.86410  0.89950  0.66460  Biso   1.000  H
  C109     1.0000 0.85959  0.93633  0.75580  Biso   1.000  C
  H56      1.0000 0.86930  0.95450  0.70310  Biso   1.000  H
  C110     1.0000 0.84809  0.94238  0.85630  Biso   1.000  C
  C111     1.0000 0.83406  0.91484  0.93350  Biso   1.000  C
  H57      1.0000 0.82630  0.91850  0.00170  Biso   1.000  H
  C112     1.0000 0.83141  0.88203  0.91110  Biso   1.000  C
  H58      1.0000 0.82170  0.86390  0.96380  Biso   1.000  H
  C113     1.0000 0.85052  0.97786  0.88100  Biso   1.000  C
  H59      1.0000 0.82780  0.97380  0.90770  Biso   1.000  H
  H60      1.0000 0.86850  0.99040  0.93650  Biso   1.000  H
  H61      1.0000 0.85680  0.99200  0.81470  Biso   1.000  H
  C114     1.0000 0.71434  0.68798  0.61630  Biso   1.000  C
  C115     1.0000 0.73280  0.66561  0.59850  Biso   1.000  C
  C116     1.0000 0.71163  0.62934  0.57500  Biso   1.000  C
  H62      1.0000 0.68690  0.61920  0.57060  Biso   1.000  H
  C117     1.0000 0.72702  0.60809  0.55790  Biso   1.000  C
  C118     1.0000 0.70267  0.56802  0.53810  Biso   1.000  C
  C119     1.0000 0.73607  0.66100  0.24190  Biso   1.000  C
  C120     1.0000 0.76559  0.65614  0.29680  Biso   1.000  C
  C121     1.0000 0.77708  0.63450  0.24630  Biso   1.000  C
  H63      1.0000 0.76640  0.62260  0.18080  Biso   1.000  H
  C122     1.0000 0.80457  0.63077  0.29420  Biso   1.000  C
  C123     1.0000 0.81764  0.60844  0.23280  Biso   1.000  C
  C124     1.0000 0.93460  0.74911  0.43710  Biso   1.000  C
  C125     1.0000 0.89623  0.74023  0.46150  Biso   1.000  C
  C126     1.0000 0.88850  0.76771  0.44900  Biso   1.000  C
  H64      1.0000 0.90660  0.79040  0.42820  Biso   1.000  H
  C127     1.0000 0.85412  0.76174  0.46690  Biso   1.000  C
  C128     1.0000 0.84754  0.79356  0.44860  Biso   1.000  C
  F82      1.0000 0.68912  0.67935  0.54330  Biso   1.000  F
  F83      1.0000 0.69534  0.67647  0.71080  Biso   1.000  F
  F84      1.0000 0.73496  0.72080  0.62960  Biso   1.000  F
  Gd5      1.0000 0.52130  0.99277  0.13239  Biso   1.000  Gd
  F85      1.0000 0.65320  0.99534  0.05587  Biso   1.000  F
  F86      1.0000 0.60918  0.96003  0.96397  Biso   1.000  F
  F87      1.0000 0.60897  0.95478  0.13677  Biso   1.000  F
  F88      1.0000 0.62477  0.10766  0.22847  Biso   1.000  F
  F89      1.0000 0.66516  0.10938  0.12587  Biso   1.000  F
  F90      1.0000 0.62492  0.11785  0.05557  Biso   1.000  F
  F91      1.0000 0.58566  0.97189  0.44944  Biso   1.000  F
  F92      1.0000 0.62473  0.01604  0.35590  Biso   1.000  F
  F93      1.0000 0.61001  0.02450  0.51701  Biso   1.000  F
  F94      1.0000 0.52586  0.08846  0.38157  Biso   1.000  F
  F95      1.0000 0.52560  0.06464  0.53719  Biso   1.000  F
  F96      1.0000 0.47958  0.04224  0.43184  Biso   1.000  F
  F97      1.0000 0.39723  0.93129  0.32738  Biso   1.000  F
  F98      1.0000 0.37515  0.88289  0.23317  Biso   1.000  F
  F99      1.0000 0.38723  0.93234  0.15575  Biso   1.000  F
  F100     1.0000 0.49008  0.86936  0.32367  Biso   1.000  F
  F101     1.0000 0.45841  0.84211  0.18297  Biso   1.000  F
  F102     1.0000 0.51384  0.87754  0.16407  Biso   1.000  F
  O29      1.0000 0.50164  0.97376  0.94992  Biso   1.000  O
  O30      1.0000 0.56727  0.98372  0.05716  Biso   1.000  O
  O31      1.0000 0.57328  0.04878  0.11097  Biso   1.000  O
  O32      1.0000 0.55691  0.99370  0.28195  Biso   1.000  O
  O33      1.0000 0.51287  0.02269  0.28348  Biso   1.000  O
  O34      1.0000 0.45794  0.95877  0.17698  Biso   1.000  O
  O35      1.0000 0.50576  0.93318  0.17158  Biso   1.000  O
  N9       1.0000 0.55438  0.97863  0.81425  Biso   1.000  N
  N10      1.0000 0.50295  0.85030  0.81347  Biso   1.000  N
  C129     1.0000 0.52769  0.94562  0.84637  Biso   1.000  C
  C130     1.0000 0.49931  0.94334  0.91247  Biso   1.000  C
  C131     1.0000 0.47097  0.90973  0.93347  Biso   1.000  C
  H65      1.0000 0.45093  0.90737  0.97017  Biso   1.000  H
  C132     1.0000 0.47170  0.87874  0.90047  Biso   1.000  C
  H66      1.0000 0.45213  0.85637  0.91637  Biso   1.000  H
  C133     1.0000 0.50057  0.88062  0.84547  Biso   1.000  C
  C134     1.0000 0.52882  0.91471  0.81217  Biso   1.000  C
  C135     1.0000 0.55831  0.92019  0.74657  Biso   1.000  C
  H67      1.0000 0.56003  0.90047  0.72347  Biso   1.000  H
  C136     1.0000 0.58425  0.95384  0.71657  Biso   1.000  C
  H68      1.0000 0.60343  0.95707  0.67277  Biso   1.000  H
  C137     1.0000 0.58187  0.98327  0.75177  Biso   1.000  C
  H69      1.0000 0.59953  0.00627  0.73157  Biso   1.000  H
  C138     1.0000 0.49189  0.82457  0.88167  Biso   1.000  C
  H70      1.0000 0.48443  0.82737  0.95127  Biso   1.000  H
  C139     1.0000 0.49030  0.79044  0.85577  Biso   1.000  C
  C140     1.0000 0.47660  0.76331  0.93367  Biso   1.000  C
  H71      1.0000 0.46923  0.76717  0.00207  Biso   1.000  H
  C141     1.0000 0.47374  0.73034  0.91087  Biso   1.000  C
  H72      1.0000 0.46403  0.71217  0.96357  Biso   1.000  H
  C142     1.0000 0.48524  0.72429  0.81037  Biso   1.000  C
  C143     1.0000 0.49927  0.75183  0.73317  Biso   1.000  C
  H73      1.0000 0.50703  0.74817  0.66497  Biso   1.000  H
  C144     1.0000 0.50192  0.78464  0.75557  Biso   1.000  C
  H74      1.0000 0.51163  0.80277  0.70287  Biso   1.000  H
  C145     1.0000 0.48281  0.68881  0.78567  Biso   1.000  C
  H75      1.0000 0.50553  0.69287  0.75897  Biso   1.000  H
  H76      1.0000 0.46483  0.67627  0.73017  Biso   1.000  H
  H77      1.0000 0.47653  0.67467  0.85197  Biso   1.000  H
  C146     1.0000 0.61899  0.97869  0.05037  Biso   1.000  C
  C147     1.0000 0.60053  0.00106  0.06817  Biso   1.000  C
  C148     1.0000 0.62170  0.03733  0.09167  Biso   1.000  C
  H78      1.0000 0.64643  0.04747  0.09607  Biso   1.000  H
  C149     1.0000 0.60631  0.05858  0.10877  Biso   1.000  C
  C150     1.0000 0.63066  0.09865  0.12857  Biso   1.000  C
  C151     1.0000 0.59726  0.00567  0.42477  Biso   1.000  C
  C152     1.0000 0.56774  0.01053  0.36987  Biso   1.000  C
  C153     1.0000 0.55625  0.03217  0.42037  Biso   1.000  C
  H79      1.0000 0.56693  0.04407  0.48587  Biso   1.000  H
  C154     1.0000 0.52876  0.03590  0.37247  Biso   1.000  C
  C155     1.0000 0.51569  0.05823  0.43387  Biso   1.000  C
  C156     1.0000 0.39873  0.91756  0.22957  Biso   1.000  C
  C157     1.0000 0.43710  0.92644  0.20517  Biso   1.000  C
  C158     1.0000 0.44483  0.89896  0.21767  Biso   1.000  C
  H80      1.0000 0.42673  0.87627  0.23847  Biso   1.000  H
  C159     1.0000 0.47921  0.90493  0.19977  Biso   1.000  C
  C160     1.0000 0.48579  0.87311  0.21807  Biso   1.000  C
  F103     1.0000 0.64421  0.98732  0.12337  Biso   1.000  F
  F104     1.0000 0.63799  0.99020  0.95587  Biso   1.000  F
  F105     1.0000 0.59837  0.94587  0.03707  Biso   1.000  F
  Gd6      1.0000 0.47870  0.00723  0.86761  Biso   1.000  Gd
  F106     1.0000 0.34680  0.00466  0.94413  Biso   1.000  F
  F107     1.0000 0.39082  0.03997  0.03603  Biso   1.000  F
  F108     1.0000 0.39103  0.04522  0.86323  Biso   1.000  F
  F109     1.0000 0.37523  0.89234  0.77153  Biso   1.000  F
  F110     1.0000 0.33484  0.89062  0.87413  Biso   1.000  F
  F111     1.0000 0.37508  0.88215  0.94443  Biso   1.000  F
  F112     1.0000 0.41434  0.02811  0.55056  Biso   1.000  F
  F113     1.0000 0.37527  0.98396  0.64410  Biso   1.000  F
  F114     1.0000 0.38999  0.97550  0.48299  Biso   1.000  F
  F115     1.0000 0.47414  0.91154  0.61843  Biso   1.000  F
  F116     1.0000 0.47440  0.93536  0.46281  Biso   1.000  F
  F117     1.0000 0.52042  0.95776  0.56816  Biso   1.000  F
  F118     1.0000 0.60277  0.06871  0.67262  Biso   1.000  F
  F119     1.0000 0.62485  0.11711  0.76683  Biso   1.000  F
  F120     1.0000 0.61277  0.06766  0.84425  Biso   1.000  F
  F121     1.0000 0.50992  0.13064  0.67633  Biso   1.000  F
  F122     1.0000 0.54159  0.15789  0.81703  Biso   1.000  F
  F123     1.0000 0.48616  0.12246  0.83593  Biso   1.000  F
  O36      1.0000 0.49836  0.02624  0.05008  Biso   1.000  O
  O37      1.0000 0.43273  0.01628  0.94284  Biso   1.000  O
  O38      1.0000 0.42672  0.95122  0.88903  Biso   1.000  O
  O39      1.0000 0.44309  0.00630  0.71805  Biso   1.000  O
  O40      1.0000 0.48713  0.97731  0.71652  Biso   1.000  O
  O41      1.0000 0.54206  0.04123  0.82302  Biso   1.000  O
  O42      1.0000 0.49424  0.06682  0.82842  Biso   1.000  O
  N11      1.0000 0.44562  0.02137  0.18575  Biso   1.000  N
  N12      1.0000 0.49705  0.14970  0.18653  Biso   1.000  N
  C161     1.0000 0.47231  0.05438  0.15363  Biso   1.000  C
  C162     1.0000 0.50069  0.05666  0.08753  Biso   1.000  C
  C163     1.0000 0.52903  0.09027  0.06653  Biso   1.000  C
  H81      1.0000 0.54907  0.09263  0.02983  Biso   1.000  H
  C164     1.0000 0.52830  0.12126  0.09953  Biso   1.000  C
  H82      1.0000 0.54787  0.14363  0.08363  Biso   1.000  H
  C165     1.0000 0.49943  0.11938  0.15453  Biso   1.000  C
  C166     1.0000 0.47118  0.08529  0.18783  Biso   1.000  C
  C167     1.0000 0.44169  0.07981  0.25343  Biso   1.000  C
  H83      1.0000 0.43997  0.09953  0.27653  Biso   1.000  H
  C168     1.0000 0.41575  0.04616  0.28343  Biso   1.000  C
  H84      1.0000 0.39657  0.04293  0.32723  Biso   1.000  H
  C169     1.0000 0.41813  0.01673  0.24823  Biso   1.000  C
  H85      1.0000 0.40047  0.99373  0.26843  Biso   1.000  H
  C170     1.0000 0.50811  0.17543  0.11833  Biso   1.000  C
  H86      1.0000 0.51557  0.17263  0.04873  Biso   1.000  H
  C171     1.0000 0.50970  0.20956  0.14423  Biso   1.000  C
  C172     1.0000 0.52340  0.23669  0.06633  Biso   1.000  C
  H87      1.0000 0.53077  0.23283  0.99793  Biso   1.000  H
  C173     1.0000 0.52626  0.26966  0.08913  Biso   1.000  C
  H88      1.0000 0.53597  0.28783  0.03643  Biso   1.000  H
  C174     1.0000 0.51476  0.27571  0.18963  Biso   1.000  C
  C175     1.0000 0.50073  0.24817  0.26683  Biso   1.000  C
  H89      1.0000 0.49297  0.25183  0.33503  Biso   1.000  H
  C176     1.0000 0.49808  0.21536  0.24443  Biso   1.000  C
  H90      1.0000 0.48837  0.19723  0.29713  Biso   1.000  H
  C177     1.0000 0.51719  0.31119  0.21433  Biso   1.000  C
  H91      1.0000 0.49447  0.30713  0.24103  Biso   1.000  H
  H92      1.0000 0.53517  0.32373  0.26983  Biso   1.000  H
  H93      1.0000 0.52347  0.32533  0.14803  Biso   1.000  H
  C178     1.0000 0.38101  0.02131  0.94963  Biso   1.000  C
  C179     1.0000 0.39947  0.99894  0.93183  Biso   1.000  C
  C180     1.0000 0.37830  0.96267  0.90833  Biso   1.000  C
  H94      1.0000 0.35357  0.95253  0.90393  Biso   1.000  H
  C181     1.0000 0.39369  0.94142  0.89123  Biso   1.000  C
  C182     1.0000 0.36934  0.90135  0.87143  Biso   1.000  C
  C183     1.0000 0.40274  0.99433  0.57523  Biso   1.000  C
  C184     1.0000 0.43226  0.98947  0.63013  Biso   1.000  C
  C185     1.0000 0.44375  0.96783  0.57963  Biso   1.000  C
  H95      1.0000 0.43307  0.95593  0.51413  Biso   1.000  H
  C186     1.0000 0.47124  0.96410  0.62753  Biso   1.000  C
  C187     1.0000 0.48431  0.94177  0.56613  Biso   1.000  C
  C188     1.0000 0.60127  0.08244  0.77043  Biso   1.000  C
  C189     1.0000 0.56290  0.07356  0.79483  Biso   1.000  C
  C190     1.0000 0.55517  0.10104  0.78233  Biso   1.000  C
  H96      1.0000 0.57327  0.12373  0.76153  Biso   1.000  H
  C191     1.0000 0.52079  0.09507  0.80023  Biso   1.000  C
  C192     1.0000 0.51421  0.12689  0.78193  Biso   1.000  C
  F124     1.0000 0.35579  0.01268  0.87663  Biso   1.000  F
  F125     1.0000 0.36201  0.00980  0.04413  Biso   1.000  F
  F126     1.0000 0.40163  0.05413  0.96293  Biso   1.000  F
  Gd7      1.0000 0.67390  0.86187  0.46572  Biso   1.000  Gd
  F127     1.0000 0.67133  0.99120  0.38920  Biso   1.000  F
  F128     1.0000 0.70664  0.98249  0.29730  Biso   1.000  F
  F129     1.0000 0.71189  0.98753  0.47010  Biso   1.000  F
  F130     1.0000 0.55901  0.85045  0.56180  Biso   1.000  F
  F131     1.0000 0.55729  0.88912  0.45920  Biso   1.000  F
  F132     1.0000 0.54882  0.84041  0.38890  Biso   1.000  F
  F133     1.0000 0.69478  0.94711  0.78277  Biso   1.000  F
  F134     1.0000 0.65063  0.94203  0.68923  Biso   1.000  F
  F135     1.0000 0.64217  0.91885  0.85034  Biso   1.000  F
  F136     1.0000 0.57821  0.77074  0.71490  Biso   1.000  F
  F137     1.0000 0.60203  0.79430  0.87052  Biso   1.000  F
  F138     1.0000 0.62443  0.77068  0.76517  Biso   1.000  F
  F139     1.0000 0.73538  0.79928  0.66071  Biso   1.000  F
  F140     1.0000 0.78378  0.82560  0.56650  Biso   1.000  F
  F141     1.0000 0.73433  0.78823  0.48908  Biso   1.000  F
  F142     1.0000 0.79731  0.95406  0.65700  Biso   1.000  F
  F143     1.0000 0.82456  0.94964  0.51630  Biso   1.000  F
  F144     1.0000 0.78913  0.96964  0.49740  Biso   1.000  F
  O43      1.0000 0.69291  0.86122  0.28325  Biso   1.000  O
  O44      1.0000 0.68295  0.91689  0.39049  Biso   1.000  O
  O45      1.0000 0.61789  0.85784  0.44430  Biso   1.000  O
  O46      1.0000 0.67297  0.89655  0.61528  Biso   1.000  O
  O47      1.0000 0.64398  0.82352  0.61681  Biso   1.000  O
  O48      1.0000 0.70790  0.83251  0.51031  Biso   1.000  O
  O49      1.0000 0.73349  0.90592  0.50491  Biso   1.000  O
  N13      1.0000 0.68804  0.90909  0.14758  Biso   1.000  N
  N14      1.0000 0.81637  0.98599  0.14680  Biso   1.000  N
  C193     1.0000 0.72105  0.91541  0.17970  Biso   1.000  C
  C194     1.0000 0.72333  0.88931  0.24580  Biso   1.000  C
  C195     1.0000 0.75694  0.89458  0.26680  Biso   1.000  C
  H97      1.0000 0.75930  0.87690  0.30350  Biso   1.000  H
  C196     1.0000 0.78793  0.92630  0.23380  Biso   1.000  C
  H98      1.0000 0.81030  0.92910  0.24970  Biso   1.000  H
  C197     1.0000 0.78605  0.95329  0.17880  Biso   1.000  C
  C198     1.0000 0.75196  0.94745  0.14550  Biso   1.000  C
  C199     1.0000 0.74648  0.97146  0.07990  Biso   1.000  C
  H99      1.0000 0.76620  0.99290  0.05680  Biso   1.000  H
  C200     1.0000 0.71283  0.96375  0.04990  Biso   1.000  C
  H100     1.0000 0.70960  0.97970  0.00610  Biso   1.000  H
  C201     1.0000 0.68340  0.93194  0.08510  Biso   1.000  C
  H101     1.0000 0.66040  0.92660  0.06490  Biso   1.000  H
  C202     1.0000 0.84210  0.00066  0.21500  Biso   1.000  C
  H102     1.0000 0.83930  0.99040  0.28460  Biso   1.000  H
  C203     1.0000 0.87623  0.03320  0.18910  Biso   1.000  C
  C204     1.0000 0.90336  0.04663  0.26700  Biso   1.000  C
  H103     1.0000 0.89950  0.03540  0.33540  Biso   1.000  H
  C205     1.0000 0.93633  0.07674  0.24420  Biso   1.000  C
  H104     1.0000 0.95450  0.08520  0.29690  Biso   1.000  H
  C206     1.0000 0.94238  0.09429  0.14370  Biso   1.000  C
  C207     1.0000 0.91484  0.08078  0.06650  Biso   1.000  C
  H105     1.0000 0.91850  0.09220  0.99830  Biso   1.000  H
  C208     1.0000 0.88203  0.05062  0.08890  Biso   1.000  C
  H106     1.0000 0.86390  0.04220  0.03620  Biso   1.000  H
  C209     1.0000 0.97786  0.12734  0.11900  Biso   1.000  C
  H107     1.0000 0.97380  0.14600  0.09230  Biso   1.000  H
  H108     1.0000 0.99040  0.12190  0.06350  Biso   1.000  H
  H109     1.0000 0.99200  0.13520  0.18530  Biso   1.000  H
  C210     1.0000 0.68798  0.97364  0.38370  Biso   1.000  C
  C211     1.0000 0.66561  0.93281  0.40150  Biso   1.000  C
  C212     1.0000 0.62934  0.91771  0.42500  Biso   1.000  C
  H110     1.0000 0.61920  0.93230  0.42940  Biso   1.000  H
  C213     1.0000 0.60809  0.88107  0.44210  Biso   1.000  C
  C214     1.0000 0.56802  0.86535  0.46190  Biso   1.000  C
  C215     1.0000 0.66100  0.92493  0.75810  Biso   1.000  C
  C216     1.0000 0.65614  0.89055  0.70320  Biso   1.000  C
  C217     1.0000 0.63450  0.85742  0.75370  Biso   1.000  C
  H111     1.0000 0.62260  0.85620  0.81920  Biso   1.000  H
  C218     1.0000 0.63077  0.82620  0.70580  Biso   1.000  C
  C219     1.0000 0.60844  0.79080  0.76720  Biso   1.000  C
  C220     1.0000 0.74911  0.81451  0.56290  Biso   1.000  C
  C221     1.0000 0.74023  0.84400  0.53850  Biso   1.000  C
  C222     1.0000 0.76771  0.87921  0.55100  Biso   1.000  C
  H112     1.0000 0.79040  0.88380  0.57180  Biso   1.000  H
  C223     1.0000 0.76174  0.90762  0.53310  Biso   1.000  C
  C224     1.0000 0.79356  0.94602  0.55140  Biso   1.000  C
  F145     1.0000 0.67935  0.99023  0.45670  Biso   1.000  F
  F146     1.0000 0.67647  0.98113  0.28920  Biso   1.000  F
  F147     1.0000 0.72080  0.98584  0.37040  Biso   1.000  F
  Gd8      1.0000 0.65943  0.80480  0.20094  Biso   1.000  Gd
  F148     1.0000 0.66200  0.67547  0.27747  Biso   1.000  F
  F149     1.0000 0.62669  0.68418  0.36937  Biso   1.000  F
  F150     1.0000 0.62144  0.67914  0.19657  Biso   1.000  F
  F151     1.0000 0.77432  0.81622  0.10487  Biso   1.000  F
  F152     1.0000 0.77604  0.77755  0.20747  Biso   1.000  F
  F153     1.0000 0.78451  0.82626  0.27777  Biso   1.000  F
  F154     1.0000 0.63855  0.71956  0.88390  Biso   1.000  F
  F155     1.0000 0.68270  0.72464  0.97744  Biso   1.000  F
  F156     1.0000 0.69116  0.74782  0.81633  Biso   1.000  F
  F157     1.0000 0.75512  0.89593  0.95177  Biso   1.000  F
  F158     1.0000 0.73130  0.87237  0.79615  Biso   1.000  F
  F159     1.0000 0.70890  0.89599  0.90150  Biso   1.000  F
  F160     1.0000 0.59795  0.86739  0.00596  Biso   1.000  F
  F161     1.0000 0.54955  0.84107  0.10017  Biso   1.000  F
  F162     1.0000 0.59900  0.87844  0.17759  Biso   1.000  F
  F163     1.0000 0.53602  0.71261  0.00967  Biso   1.000  F
  F164     1.0000 0.50877  0.71703  0.15037  Biso   1.000  F
  F165     1.0000 0.54420  0.69703  0.16927  Biso   1.000  F
  O50      1.0000 0.64042  0.80545  0.38342  Biso   1.000  O
  O51      1.0000 0.65038  0.74978  0.27618  Biso   1.000  O
  O52      1.0000 0.71544  0.80883  0.22237  Biso   1.000  O
  O53      1.0000 0.66036  0.77012  0.05139  Biso   1.000  O
  O54      1.0000 0.68935  0.84315  0.04986  Biso   1.000  O
  O55      1.0000 0.62543  0.83416  0.15636  Biso   1.000  O
  O56      1.0000 0.59984  0.76075  0.16176  Biso   1.000  O
  N15      1.0000 0.64529  0.75758  0.51909  Biso   1.000  N
  N16      1.0000 0.51696  0.68068  0.51987  Biso   1.000  N
  C225     1.0000 0.61228  0.75126  0.48697  Biso   1.000  C
  C226     1.0000 0.61000  0.77736  0.42087  Biso   1.000  C
  C227     1.0000 0.57639  0.77209  0.39987  Biso   1.000  C
  H113     1.0000 0.57403  0.78977  0.36317  Biso   1.000  H
  C228     1.0000 0.54540  0.74037  0.43287  Biso   1.000  C
  H114     1.0000 0.52303  0.73757  0.41697  Biso   1.000  H
  C229     1.0000 0.54728  0.71338  0.48787  Biso   1.000  C
  C230     1.0000 0.58137  0.71922  0.52117  Biso   1.000  C
  C231     1.0000 0.58685  0.69521  0.58677  Biso   1.000  C
  H115     1.0000 0.56713  0.67377  0.60987  Biso   1.000  H
  C232     1.0000 0.62050  0.70292  0.61677  Biso   1.000  C
  H116     1.0000 0.62373  0.68697  0.66057  Biso   1.000  H
  C233     1.0000 0.64993  0.73473  0.58157  Biso   1.000  C
  H117     1.0000 0.67293  0.74007  0.60177  Biso   1.000  H
  C234     1.0000 0.49123  0.66601  0.45167  Biso   1.000  C
  H118     1.0000 0.49403  0.67627  0.38207  Biso   1.000  H
  C235     1.0000 0.45710  0.63347  0.47757  Biso   1.000  C
  C236     1.0000 0.42997  0.62004  0.39967  Biso   1.000  C
  H119     1.0000 0.43383  0.63127  0.33127  Biso   1.000  H
  C237     1.0000 0.39700  0.58993  0.42247  Biso   1.000  C
  H120     1.0000 0.37883  0.58147  0.36977  Biso   1.000  H
  C238     1.0000 0.39095  0.57238  0.52297  Biso   1.000  C
  C239     1.0000 0.41849  0.58589  0.60017  Biso   1.000  C
  H121     1.0000 0.41483  0.57447  0.66837  Biso   1.000  H
  C240     1.0000 0.45130  0.61605  0.57777  Biso   1.000  C
  H122     1.0000 0.46943  0.62447  0.63047  Biso   1.000  H
  C241     1.0000 0.35547  0.53933  0.54767  Biso   1.000  C
  H123     1.0000 0.35953  0.52067  0.57437  Biso   1.000  H
  H124     1.0000 0.34293  0.54477  0.60317  Biso   1.000  H
  H125     1.0000 0.34133  0.53147  0.48137  Biso   1.000  H
  C242     1.0000 0.64535  0.69303  0.28297  Biso   1.000  C
  C243     1.0000 0.66772  0.73386  0.26517  Biso   1.000  C
  C244     1.0000 0.70399  0.74896  0.24167  Biso   1.000  C
  H126     1.0000 0.71413  0.73437  0.23727  Biso   1.000  H
  C245     1.0000 0.72524  0.78560  0.22457  Biso   1.000  C
  C246     1.0000 0.76531  0.80132  0.20477  Biso   1.000  C
  C247     1.0000 0.67233  0.74174  0.90857  Biso   1.000  C
  C248     1.0000 0.67719  0.77612  0.96347  Biso   1.000  C
  C249     1.0000 0.69883  0.80925  0.91297  Biso   1.000  C
  H127     1.0000 0.71073  0.81047  0.84747  Biso   1.000  H
  C250     1.0000 0.70256  0.84047  0.96087  Biso   1.000  C
  C251     1.0000 0.72489  0.87587  0.89947  Biso   1.000  C
  C252     1.0000 0.58422  0.85216  0.10377  Biso   1.000  C
  C253     1.0000 0.59310  0.82267  0.12817  Biso   1.000  C
  C254     1.0000 0.56562  0.78746  0.11567  Biso   1.000  C
  H128     1.0000 0.54293  0.78287  0.09487  Biso   1.000  H
  C255     1.0000 0.57159  0.75905  0.13357  Biso   1.000  C
  C256     1.0000 0.53977  0.72065  0.11527  Biso   1.000  C
  F166     1.0000 0.65398  0.67644  0.20997  Biso   1.000  F
  F167     1.0000 0.65686  0.68554  0.37747  Biso   1.000  F
  F168     1.0000 0.61253  0.68083  0.29627  Biso   1.000  F
  Gd9      1.0000 0.34057  0.19520  0.79906  Biso   1.000  Gd
  F169     1.0000 0.33800  0.32453  0.72253  Biso   1.000  F
  F170     1.0000 0.37331  0.31582  0.63063  Biso   1.000  F
  F171     1.0000 0.37856  0.32086  0.80343  Biso   1.000  F
  F172     1.0000 0.22568  0.18378  0.89513  Biso   1.000  F
  F173     1.0000 0.22396  0.22245  0.79253  Biso   1.000  F
  F174     1.0000 0.21549  0.17374  0.72223  Biso   1.000  F
  F175     1.0000 0.36145  0.28044  0.11610  Biso   1.000  F
  F176     1.0000 0.31730  0.27536  0.02256  Biso   1.000  F
  F177     1.0000 0.30884  0.25218  0.18367  Biso   1.000  F
  F178     1.0000 0.24488  0.10407  0.04823  Biso   1.000  F
  F179     1.0000 0.26870  0.12763  0.20385  Biso   1.000  F
  F180     1.0000 0.29110  0.10401  0.09850  Biso   1.000  F
  F181     1.0000 0.40205  0.13261  0.99404  Biso   1.000  F
  F182     1.0000 0.45045  0.15893  0.89983  Biso   1.000  F
  F183     1.0000 0.40100  0.12156  0.82241  Biso   1.000  F
  F184     1.0000 0.46398  0.28739  0.99033  Biso   1.000  F
  F185     1.0000 0.49123  0.28297  0.84963  Biso   1.000  F
  F186     1.0000 0.45580  0.30297  0.83073  Biso   1.000  F
  O57      1.0000 0.35958  0.19455  0.61658  Biso   1.000  O
  O58      1.0000 0.34962  0.25022  0.72382  Biso   1.000  O
  O59      1.0000 0.28456  0.19117  0.77763  Biso   1.000  O
  O60      1.0000 0.33964  0.22988  0.94861  Biso   1.000  O
  O61      1.0000 0.31065  0.15685  0.95014  Biso   1.000  O
  O62      1.0000 0.37457  0.16584  0.84364  Biso   1.000  O
  O63      1.0000 0.40016  0.23925  0.83824  Biso   1.000  O
  N17      1.0000 0.35471  0.24242  0.48091  Biso   1.000  N
  N18      1.0000 0.48304  0.31932  0.48013  Biso   1.000  N
  C257     1.0000 0.38772  0.24874  0.51303  Biso   1.000  C
  C258     1.0000 0.39000  0.22264  0.57913  Biso   1.000  C
  C259     1.0000 0.42361  0.22791  0.60013  Biso   1.000  C
  H129     1.0000 0.42597  0.21023  0.63683  Biso   1.000  H
  C260     1.0000 0.45460  0.25963  0.56713  Biso   1.000  C
  H130     1.0000 0.47697  0.26243  0.58303  Biso   1.000  H
  C261     1.0000 0.45272  0.28662  0.51213  Biso   1.000  C
  C262     1.0000 0.41863  0.28078  0.47883  Biso   1.000  C
  C263     1.0000 0.41315  0.30479  0.41323  Biso   1.000  C
  H131     1.0000 0.43287  0.32623  0.39013  Biso   1.000  H
  C264     1.0000 0.37950  0.29708  0.38323  Biso   1.000  C
  H132     1.0000 0.37627  0.31303  0.33943  Biso   1.000  H
  C265     1.0000 0.35007  0.26527  0.41843  Biso   1.000  C
  H133     1.0000 0.32707  0.25993  0.39823  Biso   1.000  H
  C266     1.0000 0.50877  0.33399  0.54833  Biso   1.000  C
  H134     1.0000 0.50597  0.32373  0.61793  Biso   1.000  H
  C267     1.0000 0.54290  0.36653  0.52243  Biso   1.000  C
  C268     1.0000 0.57003  0.37996  0.60033  Biso   1.000  C
  H135     1.0000 0.56617  0.36873  0.66873  Biso   1.000  H
  C269     1.0000 0.60300  0.41007  0.57753  Biso   1.000  C
  H136     1.0000 0.62117  0.41853  0.63023  Biso   1.000  H
  C270     1.0000 0.60905  0.42762  0.47703  Biso   1.000  C
  C271     1.0000 0.58151  0.41411  0.39983  Biso   1.000  C
  H137     1.0000 0.58517  0.42553  0.33163  Biso   1.000  H
  C272     1.0000 0.54870  0.38395  0.42223  Biso   1.000  C
  H138     1.0000 0.53057  0.37553  0.36953  Biso   1.000  H
  C273     1.0000 0.64453  0.46067  0.45233  Biso   1.000  C
  H139     1.0000 0.64047  0.47933  0.42563  Biso   1.000  H
  H140     1.0000 0.65707  0.45523  0.39683  Biso   1.000  H
  H141     1.0000 0.65867  0.46853  0.51863  Biso   1.000  H
  C274     1.0000 0.35465  0.30697  0.71703  Biso   1.000  C
  C275     1.0000 0.33228  0.26614  0.73483  Biso   1.000  C
  C276     1.0000 0.29601  0.25104  0.75833  Biso   1.000  C
  H142     1.0000 0.28587  0.26563  0.76273  Biso   1.000  H
  C277     1.0000 0.27476  0.21440  0.77543  Biso   1.000  C
  C278     1.0000 0.23469  0.19868  0.79523  Biso   1.000  C
  C279     1.0000 0.32767  0.25826  0.09143  Biso   1.000  C
  C280     1.0000 0.32281  0.22388  0.03653  Biso   1.000  C
  C281     1.0000 0.30117  0.19075  0.08703  Biso   1.000  C
  H143     1.0000 0.28927  0.18953  0.15253  Biso   1.000  H
  C282     1.0000 0.29744  0.15953  0.03913  Biso   1.000  C
  C283     1.0000 0.27511  0.12413  0.10053  Biso   1.000  C
  C284     1.0000 0.41578  0.14784  0.89623  Biso   1.000  C
  C285     1.0000 0.40690  0.17733  0.87183  Biso   1.000  C
  C286     1.0000 0.43438  0.21254  0.88433  Biso   1.000  C
  H144     1.0000 0.45707  0.21713  0.90513  Biso   1.000  H
  C287     1.0000 0.42841  0.24095  0.86643  Biso   1.000  C
  C288     1.0000 0.46023  0.27935  0.88473  Biso   1.000  C
  F187     1.0000 0.34602  0.32356  0.79003  Biso   1.000  F
  F188     1.0000 0.34314  0.31446  0.62253  Biso   1.000  F
  F189     1.0000 0.38747  0.31917  0.70373  Biso   1.000  F
  Gd10     1.0000 0.32610  0.13813  0.53428  Biso   1.000  Gd
  F190     1.0000 0.32867  0.00880  0.61080  Biso   1.000  F
  F191     1.0000 0.29336  0.01751  0.70270  Biso   1.000  F
  F192     1.0000 0.28811  0.01247  0.52990  Biso   1.000  F
  F193     1.0000 0.44099  0.14955  0.43820  Biso   1.000  F
  F194     1.0000 0.44271  0.11088  0.54080  Biso   1.000  F
  F195     1.0000 0.45118  0.15959  0.61110  Biso   1.000  F
  F196     1.0000 0.30522  0.05289  0.21723  Biso   1.000  F
  F197     1.0000 0.34937  0.05797  0.31077  Biso   1.000  F
  F198     1.0000 0.35783  0.08115  0.14966  Biso   1.000  F
  F199     1.0000 0.42179  0.22926  0.28510  Biso   1.000  F
  F200     1.0000 0.39797  0.20570  0.12948  Biso   1.000  F
  F201     1.0000 0.37557  0.22932  0.23483  Biso   1.000  F
  F202     1.0000 0.26462  0.20072  0.33929  Biso   1.000  F
  F203     1.0000 0.21622  0.17440  0.43350  Biso   1.000  F
  F204     1.0000 0.26567  0.21177  0.51092  Biso   1.000  F
  F205     1.0000 0.20269  0.04594  0.34300  Biso   1.000  F
  F206     1.0000 0.17544  0.05036  0.48370  Biso   1.000  F
  F207     1.0000 0.21087  0.03036  0.50260  Biso   1.000  F
  O64      1.0000 0.30709  0.13878  0.71675  Biso   1.000  O
  O65      1.0000 0.31705  0.08311  0.60951  Biso   1.000  O
  O66      1.0000 0.38211  0.14216  0.55570  Biso   1.000  O
  O67      1.0000 0.32703  0.10345  0.38472  Biso   1.000  O
  O68      1.0000 0.35602  0.17648  0.38319  Biso   1.000  O
  O69      1.0000 0.29210  0.16749  0.48969  Biso   1.000  O
  O70      1.0000 0.26651  0.09408  0.49509  Biso   1.000  O
  N19      1.0000 0.31196  0.09091  0.85242  Biso   1.000  N
  N20      1.0000 0.18363  0.01401  0.85320  Biso   1.000  N
  C289     1.0000 0.27895  0.08459  0.82030  Biso   1.000  C
  C290     1.0000 0.27667  0.11069  0.75420  Biso   1.000  C
  C291     1.0000 0.24306  0.10542  0.73320  Biso   1.000  C
  H145     1.0000 0.24070  0.12310  0.69650  Biso   1.000  H
  C292     1.0000 0.21207  0.07370  0.76620  Biso   1.000  C
  H146     1.0000 0.18970  0.07090  0.75030  Biso   1.000  H
  C293     1.0000 0.21395  0.04671  0.82120  Biso   1.000  C
  C294     1.0000 0.24804  0.05255  0.85450  Biso   1.000  C
  C295     1.0000 0.25352  0.02854  0.92010  Biso   1.000  C
  H147     1.0000 0.23380  0.00710  0.94320  Biso   1.000  H
  C296     1.0000 0.28717  0.03625  0.95010  Biso   1.000  C
  H148     1.0000 0.29040  0.02030  0.99390  Biso   1.000  H
  C297     1.0000 0.31660  0.06806  0.91490  Biso   1.000  C
  H149     1.0000 0.33960  0.07340  0.93510  Biso   1.000  H
  C298     1.0000 0.15790  0.99934  0.78500  Biso   1.000  C
  H150     1.0000 0.16070  0.00960  0.71540  Biso   1.000  H
  C299     1.0000 0.12377  0.96680  0.81090  Biso   1.000  C
  C300     1.0000 0.09664  0.95337  0.73300  Biso   1.000  C
  H151     1.0000 0.10050  0.96460  0.66460  Biso   1.000  H
  C301     1.0000 0.06367  0.92326  0.75580  Biso   1.000  C
  H152     1.0000 0.04550  0.91480  0.70310  Biso   1.000  H
  C302     1.0000 0.05762  0.90571  0.85630  Biso   1.000  C
  C303     1.0000 0.08516  0.91922  0.93350  Biso   1.000  C
  H153     1.0000 0.08150  0.90780  0.00170  Biso   1.000  H
  C304     1.0000 0.11797  0.94938  0.91110  Biso   1.000  C
  H154     1.0000 0.13610  0.95780  0.96380  Biso   1.000  H
  C305     1.0000 0.02214  0.87266  0.88100  Biso   1.000  C
  H155     1.0000 0.02620  0.85400  0.90770  Biso   1.000  H
  H156     1.0000 0.00960  0.87810  0.93650  Biso   1.000  H
  H157     1.0000 0.00800  0.86480  0.81470  Biso   1.000  H
  C306     1.0000 0.31202  0.02636  0.61630  Biso   1.000  C
  C307     1.0000 0.33439  0.06719  0.59850  Biso   1.000  C
  C308     1.0000 0.37066  0.08229  0.57500  Biso   1.000  C
  H158     1.0000 0.38080  0.06770  0.57060  Biso   1.000  H
  C309     1.0000 0.39191  0.11893  0.55790  Biso   1.000  C
  C310     1.0000 0.43198  0.13465  0.53810  Biso   1.000  C
  C311     1.0000 0.33900  0.07507  0.24190  Biso   1.000  C
  C312     1.0000 0.34386  0.10945  0.29680  Biso   1.000  C
  C313     1.0000 0.36550  0.14258  0.24630  Biso   1.000  C
  H159     1.0000 0.37740  0.14380  0.18080  Biso   1.000  H
  C314     1.0000 0.36923  0.17380  0.29420  Biso   1.000  C
  C315     1.0000 0.39156  0.20920  0.23280  Biso   1.000  C
  C316     1.0000 0.25089  0.18549  0.43710  Biso   1.000  C
  C317     1.0000 0.25977  0.15600  0.46150  Biso   1.000  C
  C318     1.0000 0.23229  0.12079  0.44900  Biso   1.000  C
  H160     1.0000 0.20960  0.11620  0.42820  Biso   1.000  H
  C319     1.0000 0.23826  0.09238  0.46690  Biso   1.000  C
  C320     1.0000 0.20644  0.05398  0.44860  Biso   1.000  C
  F208     1.0000 0.32065  0.00977  0.54330  Biso   1.000  F
  F209     1.0000 0.32353  0.01887  0.71080  Biso   1.000  F
  F210     1.0000 0.27920  0.01416  0.62960  Biso   1.000  F
  Gd11     1.0000 0.00723  0.52853  0.13239  Biso   1.000  Gd
  F211     1.0000 0.00466  0.65787  0.05587  Biso   1.000  F
  F212     1.0000 0.03997  0.64916  0.96397  Biso   1.000  F
  F213     1.0000 0.04522  0.65420  0.13677  Biso   1.000  F
  F214     1.0000 0.89234  0.51712  0.22847  Biso   1.000  F
  F215     1.0000 0.89062  0.55579  0.12587  Biso   1.000  F
  F216     1.0000 0.88215  0.50708  0.05557  Biso   1.000  F
  F217     1.0000 0.02811  0.61378  0.44944  Biso   1.000  F
  F218     1.0000 0.98396  0.60870  0.35590  Biso   1.000  F
  F219     1.0000 0.97550  0.58552  0.51701  Biso   1.000  F
  F220     1.0000 0.91154  0.43741  0.38157  Biso   1.000  F
  F221     1.0000 0.93536  0.46097  0.53719  Biso   1.000  F
  F222     1.0000 0.95776  0.43735  0.43184  Biso   1.000  F
  F223     1.0000 0.06871  0.46595  0.32738  Biso   1.000  F
  F224     1.0000 0.11711  0.49227  0.23317  Biso   1.000  F
  F225     1.0000 0.06766  0.45490  0.15575  Biso   1.000  F
  F226     1.0000 0.13064  0.62073  0.32367  Biso   1.000  F
  F227     1.0000 0.15789  0.61631  0.18297  Biso   1.000  F
  F228     1.0000 0.12246  0.63631  0.16407  Biso   1.000  F
  O71      1.0000 0.02624  0.52789  0.94992  Biso   1.000  O
  O72      1.0000 0.01628  0.58356  0.05716  Biso   1.000  O
  O73      1.0000 0.95122  0.52451  0.11097  Biso   1.000  O
  O74      1.0000 0.00630  0.56322  0.28195  Biso   1.000  O
  O75      1.0000 0.97731  0.49019  0.28348  Biso   1.000  O
  O76      1.0000 0.04123  0.49918  0.17698  Biso   1.000  O
  O77      1.0000 0.06682  0.57259  0.17158  Biso   1.000  O
  N21      1.0000 0.02137  0.57576  0.81425  Biso   1.000  N
  N22      1.0000 0.14970  0.65266  0.81347  Biso   1.000  N
  C321     1.0000 0.05438  0.58208  0.84637  Biso   1.000  C
  C322     1.0000 0.05666  0.55598  0.91247  Biso   1.000  C
  C323     1.0000 0.09027  0.56125  0.93347  Biso   1.000  C
  H161     1.0000 0.09263  0.54357  0.97017  Biso   1.000  H
  C324     1.0000 0.12126  0.59297  0.90047  Biso   1.000  C
  H162     1.0000 0.14363  0.59577  0.91637  Biso   1.000  H
  C325     1.0000 0.11938  0.61996  0.84547  Biso   1.000  C
  C326     1.0000 0.08529  0.61412  0.81217  Biso   1.000  C
  C327     1.0000 0.07981  0.63813  0.74657  Biso   1.000  C
  H163     1.0000 0.09953  0.65957  0.72347  Biso   1.000  H
  C328     1.0000 0.04616  0.63042  0.71657  Biso   1.000  C
  H164     1.0000 0.04293  0.64637  0.67277  Biso   1.000  H
  C329     1.0000 0.01673  0.59861  0.75177  Biso   1.000  C
  H165     1.0000 0.99373  0.59327  0.73157  Biso   1.000  H
  C330     1.0000 0.17543  0.66733  0.88167  Biso   1.000  C
  H166     1.0000 0.17263  0.65707  0.95127  Biso   1.000  H
  C331     1.0000 0.20956  0.69987  0.85577  Biso   1.000  C
  C332     1.0000 0.23669  0.71330  0.93367  Biso   1.000  C
  H167     1.0000 0.23283  0.70207  0.00207  Biso   1.000  H
  C333     1.0000 0.26966  0.74341  0.91087  Biso   1.000  C
  H168     1.0000 0.28783  0.75187  0.96357  Biso   1.000  H
  C334     1.0000 0.27571  0.76096  0.81037  Biso   1.000  C
  C335     1.0000 0.24817  0.74745  0.73317  Biso   1.000  C
  H169     1.0000 0.25183  0.75887  0.66497  Biso   1.000  H
  C336     1.0000 0.21536  0.71729  0.75557  Biso   1.000  C
  H170     1.0000 0.19723  0.70887  0.70287  Biso   1.000  H
  C337     1.0000 0.31119  0.79401  0.78567  Biso   1.000  C
  H171     1.0000 0.30713  0.81267  0.75897  Biso   1.000  H
  H172     1.0000 0.32373  0.78857  0.73017  Biso   1.000  H
  H173     1.0000 0.32533  0.80187  0.85197  Biso   1.000  H
  C338     1.0000 0.02131  0.64031  0.05037  Biso   1.000  C
  C339     1.0000 0.99894  0.59948  0.06817  Biso   1.000  C
  C340     1.0000 0.96267  0.58438  0.09167  Biso   1.000  C
  H174     1.0000 0.95253  0.59897  0.09607  Biso   1.000  H
  C341     1.0000 0.94142  0.54774  0.10877  Biso   1.000  C
  C342     1.0000 0.90135  0.53202  0.12857  Biso   1.000  C
  C343     1.0000 0.99433  0.59160  0.42477  Biso   1.000  C
  C344     1.0000 0.98947  0.55722  0.36987  Biso   1.000  C
  C345     1.0000 0.96783  0.52409  0.42037  Biso   1.000  C
  H175     1.0000 0.95593  0.52287  0.48587  Biso   1.000  H
  C346     1.0000 0.96410  0.49287  0.37247  Biso   1.000  C
  C347     1.0000 0.94177  0.45747  0.43387  Biso   1.000  C
  C348     1.0000 0.08244  0.48118  0.22957  Biso   1.000  C
  C349     1.0000 0.07356  0.51067  0.20517  Biso   1.000  C
  C350     1.0000 0.10104  0.54588  0.21767  Biso   1.000  C
  H176     1.0000 0.12373  0.55047  0.23847  Biso   1.000  H
  C351     1.0000 0.09507  0.57429  0.19977  Biso   1.000  C
  C352     1.0000 0.12689  0.61269  0.21807  Biso   1.000  C
  F229     1.0000 0.01268  0.65690  0.12337  Biso   1.000  F
  F230     1.0000 0.00980  0.64780  0.95587  Biso   1.000  F
  F231     1.0000 0.05413  0.65251  0.03707  Biso   1.000  F
  Gd12     1.0000 0.99277  0.47147  0.86761  Biso   1.000  Gd
  F232     1.0000 0.99534  0.34213  0.94413  Biso   1.000  F
  F233     1.0000 0.96003  0.35084  0.03603  Biso   1.000  F
  F234     1.0000 0.95478  0.34580  0.86323  Biso   1.000  F
  F235     1.0000 0.10766  0.48288  0.77153  Biso   1.000  F
  F236     1.0000 0.10938  0.44421  0.87413  Biso   1.000  F
  F237     1.0000 0.11785  0.49292  0.94443  Biso   1.000  F
  F238     1.0000 0.97189  0.38622  0.55056  Biso   1.000  F
  F239     1.0000 0.01604  0.39130  0.64410  Biso   1.000  F
  F240     1.0000 0.02450  0.41448  0.48299  Biso   1.000  F
  F241     1.0000 0.08846  0.56259  0.61843  Biso   1.000  F
  F242     1.0000 0.06464  0.53903  0.46281  Biso   1.000  F
  F243     1.0000 0.04224  0.56265  0.56816  Biso   1.000  F
  F244     1.0000 0.93129  0.53405  0.67262  Biso   1.000  F
  F245     1.0000 0.88289  0.50773  0.76683  Biso   1.000  F
  F246     1.0000 0.93234  0.54510  0.84425  Biso   1.000  F
  F247     1.0000 0.86936  0.37927  0.67633  Biso   1.000  F
  F248     1.0000 0.84211  0.38369  0.81703  Biso   1.000  F
  F249     1.0000 0.87754  0.36369  0.83593  Biso   1.000  F
  O78      1.0000 0.97376  0.47211  0.05008  Biso   1.000  O
  O79      1.0000 0.98372  0.41644  0.94284  Biso   1.000  O
  O80      1.0000 0.04878  0.47549  0.88903  Biso   1.000  O
  O81      1.0000 0.99370  0.43678  0.71805  Biso   1.000  O
  O82      1.0000 0.02269  0.50981  0.71652  Biso   1.000  O
  O83      1.0000 0.95877  0.50082  0.82302  Biso   1.000  O
  O84      1.0000 0.93318  0.42741  0.82842  Biso   1.000  O
  N23      1.0000 0.97863  0.42424  0.18575  Biso   1.000  N
  N24      1.0000 0.85030  0.34734  0.18653  Biso   1.000  N
  C353     1.0000 0.94562  0.41792  0.15363  Biso   1.000  C
  C354     1.0000 0.94334  0.44402  0.08753  Biso   1.000  C
  C355     1.0000 0.90973  0.43875  0.06653  Biso   1.000  C
  H177     1.0000 0.90737  0.45643  0.02983  Biso   1.000  H
  C356     1.0000 0.87874  0.40703  0.09953  Biso   1.000  C
  H178     1.0000 0.85637  0.40423  0.08363  Biso   1.000  H
  C357     1.0000 0.88062  0.38004  0.15453  Biso   1.000  C
  C358     1.0000 0.91471  0.38588  0.18783  Biso   1.000  C
  C359     1.0000 0.92019  0.36187  0.25343  Biso   1.000  C
  H179     1.0000 0.90047  0.34043  0.27653  Biso   1.000  H
  C360     1.0000 0.95384  0.36958  0.28343  Biso   1.000  C
  H180     1.0000 0.95707  0.35363  0.32723  Biso   1.000  H
  C361     1.0000 0.98327  0.40139  0.24823  Biso   1.000  C
  H181     1.0000 0.00627  0.40673  0.26843  Biso   1.000  H
  C362     1.0000 0.82457  0.33267  0.11833  Biso   1.000  C
  H182     1.0000 0.82737  0.34293  0.04873  Biso   1.000  H
  C363     1.0000 0.79044  0.30013  0.14423  Biso   1.000  C
  C364     1.0000 0.76331  0.28670  0.06633  Biso   1.000  C
  H183     1.0000 0.76717  0.29793  0.99793  Biso   1.000  H
  C365     1.0000 0.73034  0.25659  0.08913  Biso   1.000  C
  H184     1.0000 0.71217  0.24813  0.03643  Biso   1.000  H
  C366     1.0000 0.72429  0.23904  0.18963  Biso   1.000  C
  C367     1.0000 0.75183  0.25255  0.26683  Biso   1.000  C
  H185     1.0000 0.74817  0.24113  0.33503  Biso   1.000  H
  C368     1.0000 0.78464  0.28271  0.24443  Biso   1.000  C
  H186     1.0000 0.80277  0.29113  0.29713  Biso   1.000  H
  C369     1.0000 0.68881  0.20599  0.21433  Biso   1.000  C
  H187     1.0000 0.69287  0.18733  0.24103  Biso   1.000  H
  H188     1.0000 0.67627  0.21143  0.26983  Biso   1.000  H
  H189     1.0000 0.67467  0.19813  0.14803  Biso   1.000  H
  C370     1.0000 0.97869  0.35969  0.94963  Biso   1.000  C
  C371     1.0000 0.00106  0.40052  0.93183  Biso   1.000  C
  C372     1.0000 0.03733  0.41562  0.90833  Biso   1.000  C
  H190     1.0000 0.04747  0.40103  0.90393  Biso   1.000  H
  C373     1.0000 0.05858  0.45226  0.89123  Biso   1.000  C
  C374     1.0000 0.09865  0.46798  0.87143  Biso   1.000  C
  C375     1.0000 0.00567  0.40840  0.57523  Biso   1.000  C
  C376     1.0000 0.01053  0.44278  0.63013  Biso   1.000  C
  C377     1.0000 0.03217  0.47591  0.57963  Biso   1.000  C
  H191     1.0000 0.04407  0.47713  0.51413  Biso   1.000  H
  C378     1.0000 0.03590  0.50713  0.62753  Biso   1.000  C
  C379     1.0000 0.05823  0.54253  0.56613  Biso   1.000  C
  C380     1.0000 0.91756  0.51882  0.77043  Biso   1.000  C
  C381     1.0000 0.92644  0.48933  0.79483  Biso   1.000  C
  C382     1.0000 0.89896  0.45412  0.78233  Biso   1.000  C
  H192     1.0000 0.87627  0.44953  0.76153  Biso   1.000  H
  C383     1.0000 0.90493  0.42571  0.80023  Biso   1.000  C
  C384     1.0000 0.87311  0.38731  0.78193  Biso   1.000  C
  F250     1.0000 0.98732  0.34310  0.87663  Biso   1.000  F
  F251     1.0000 0.99020  0.35220  0.04413  Biso   1.000  F
  F252     1.0000 0.94587  0.34749  0.96293  Biso   1.000  F
  Gd13     1.0000 0.13813  0.81203  0.46572  Biso   1.000  Gd
  F253     1.0000 0.00880  0.68013  0.38920  Biso   1.000  F
  F254     1.0000 0.01751  0.72415  0.29730  Biso   1.000  F
  F255     1.0000 0.01247  0.72436  0.47010  Biso   1.000  F
  F256     1.0000 0.14955  0.70856  0.56180  Biso   1.000  F
  F257     1.0000 0.11088  0.66817  0.45920  Biso   1.000  F
  F258     1.0000 0.15959  0.70841  0.38890  Biso   1.000  F
  F259     1.0000 0.05289  0.74767  0.78277  Biso   1.000  F
  F260     1.0000 0.05797  0.70860  0.68923  Biso   1.000  F
  F261     1.0000 0.08115  0.72332  0.85034  Biso   1.000  F
  F262     1.0000 0.22926  0.80747  0.71490  Biso   1.000  F
  F263     1.0000 0.20570  0.80773  0.87052  Biso   1.000  F
  F264     1.0000 0.22932  0.85375  0.76517  Biso   1.000  F
  F265     1.0000 0.20072  0.93610  0.66071  Biso   1.000  F
  F266     1.0000 0.17440  0.95818  0.56650  Biso   1.000  F
  F267     1.0000 0.21177  0.94610  0.48908  Biso   1.000  F
  F268     1.0000 0.04594  0.84325  0.65700  Biso   1.000  F
  F269     1.0000 0.05036  0.87492  0.51630  Biso   1.000  F
  F270     1.0000 0.03036  0.81949  0.49740  Biso   1.000  F
  O85      1.0000 0.13878  0.83169  0.28325  Biso   1.000  O
  O86      1.0000 0.08311  0.76606  0.39049  Biso   1.000  O
  O87      1.0000 0.14216  0.76005  0.44430  Biso   1.000  O
  O88      1.0000 0.10345  0.77642  0.61528  Biso   1.000  O
  O89      1.0000 0.17648  0.82046  0.61681  Biso   1.000  O
  O90      1.0000 0.16749  0.87539  0.51031  Biso   1.000  O
  O91      1.0000 0.09408  0.82757  0.50491  Biso   1.000  O
  N25      1.0000 0.09091  0.77895  0.14758  Biso   1.000  N
  N26      1.0000 0.01401  0.83038  0.14680  Biso   1.000  N
  C385     1.0000 0.08459  0.80564  0.17970  Biso   1.000  C
  C386     1.0000 0.11069  0.83402  0.24580  Biso   1.000  C
  C387     1.0000 0.10542  0.86236  0.26680  Biso   1.000  C
  H193     1.0000 0.12310  0.88240  0.30350  Biso   1.000  H
  C388     1.0000 0.07370  0.86163  0.23380  Biso   1.000  C
  H194     1.0000 0.07090  0.88120  0.24970  Biso   1.000  H
  C389     1.0000 0.04671  0.83276  0.17880  Biso   1.000  C
  C390     1.0000 0.05255  0.80451  0.14550  Biso   1.000  C
  C391     1.0000 0.02854  0.77502  0.07990  Biso   1.000  C
  H195     1.0000 0.00710  0.77330  0.05680  Biso   1.000  H
  C392     1.0000 0.03625  0.74908  0.04990  Biso   1.000  C
  H196     1.0000 0.02030  0.72990  0.00610  Biso   1.000  H
  C393     1.0000 0.06806  0.75146  0.08510  Biso   1.000  C
  H197     1.0000 0.07340  0.73380  0.06490  Biso   1.000  H
  C394     1.0000 0.99934  0.84144  0.21500  Biso   1.000  C
  H198     1.0000 0.00960  0.84890  0.28460  Biso   1.000  H
  C395     1.0000 0.96680  0.84303  0.18910  Biso   1.000  C
  C396     1.0000 0.95337  0.85673  0.26700  Biso   1.000  C
  H199     1.0000 0.96460  0.86410  0.33540  Biso   1.000  H
  C397     1.0000 0.92326  0.85959  0.24420  Biso   1.000  C
  H200     1.0000 0.91480  0.86930  0.29690  Biso   1.000  H
  C398     1.0000 0.90571  0.84809  0.14370  Biso   1.000  C
  C399     1.0000 0.91922  0.83406  0.06650  Biso   1.000  C
  H201     1.0000 0.90780  0.82630  0.99830  Biso   1.000  H
  C400     1.0000 0.94938  0.83141  0.08890  Biso   1.000  C
  H202     1.0000 0.95780  0.82170  0.03620  Biso   1.000  H
  C401     1.0000 0.87266  0.85052  0.11900  Biso   1.000  C
  H203     1.0000 0.85400  0.82780  0.09230  Biso   1.000  H
  H204     1.0000 0.87810  0.86850  0.06350  Biso   1.000  H
  H205     1.0000 0.86480  0.85680  0.18530  Biso   1.000  H
  C402     1.0000 0.02636  0.71434  0.38370  Biso   1.000  C
  C403     1.0000 0.06719  0.73280  0.40150  Biso   1.000  C
  C404     1.0000 0.08229  0.71163  0.42500  Biso   1.000  C
  H206     1.0000 0.06770  0.68690  0.42940  Biso   1.000  H
  C405     1.0000 0.11893  0.72702  0.44210  Biso   1.000  C
  C406     1.0000 0.13465  0.70267  0.46190  Biso   1.000  C
  C407     1.0000 0.07507  0.73607  0.75810  Biso   1.000  C
  C408     1.0000 0.10945  0.76559  0.70320  Biso   1.000  C
  C409     1.0000 0.14258  0.77708  0.75370  Biso   1.000  C
  H207     1.0000 0.14380  0.76640  0.81920  Biso   1.000  H
  C410     1.0000 0.17380  0.80457  0.70580  Biso   1.000  C
  C411     1.0000 0.20920  0.81764  0.76720  Biso   1.000  C
  C412     1.0000 0.18549  0.93460  0.56290  Biso   1.000  C
  C413     1.0000 0.15600  0.89623  0.53850  Biso   1.000  C
  C414     1.0000 0.12079  0.88850  0.55100  Biso   1.000  C
  H208     1.0000 0.11620  0.90660  0.57180  Biso   1.000  H
  C415     1.0000 0.09238  0.85412  0.53310  Biso   1.000  C
  C416     1.0000 0.05398  0.84754  0.55140  Biso   1.000  C
  F271     1.0000 0.00977  0.68912  0.45670  Biso   1.000  F
  F272     1.0000 0.01887  0.69534  0.28920  Biso   1.000  F
  F273     1.0000 0.01416  0.73496  0.37040  Biso   1.000  F
  Gd14     1.0000 0.19520  0.85463  0.20094  Biso   1.000  Gd
  F274     1.0000 0.32453  0.98654  0.27747  Biso   1.000  F
  F275     1.0000 0.31582  0.94252  0.36937  Biso   1.000  F
  F276     1.0000 0.32086  0.94231  0.19657  Biso   1.000  F
  F277     1.0000 0.18378  0.95811  0.10487  Biso   1.000  F
  F278     1.0000 0.22245  0.99850  0.20747  Biso   1.000  F
  F279     1.0000 0.17374  0.95826  0.27777  Biso   1.000  F
  F280     1.0000 0.28044  0.91900  0.88390  Biso   1.000  F
  F281     1.0000 0.27536  0.95807  0.97744  Biso   1.000  F
  F282     1.0000 0.25218  0.94335  0.81633  Biso   1.000  F
  F283     1.0000 0.10407  0.85920  0.95177  Biso   1.000  F
  F284     1.0000 0.12763  0.85894  0.79615  Biso   1.000  F
  F285     1.0000 0.10401  0.81292  0.90150  Biso   1.000  F
  F286     1.0000 0.13261  0.73057  0.00596  Biso   1.000  F
  F287     1.0000 0.15893  0.70849  0.10017  Biso   1.000  F
  F288     1.0000 0.12156  0.72057  0.17759  Biso   1.000  F
  F289     1.0000 0.28739  0.82342  0.00967  Biso   1.000  F
  F290     1.0000 0.28297  0.79175  0.15037  Biso   1.000  F
  F291     1.0000 0.30297  0.84718  0.16927  Biso   1.000  F
  O92      1.0000 0.19455  0.83498  0.38342  Biso   1.000  O
  O93      1.0000 0.25022  0.90061  0.27618  Biso   1.000  O
  O94      1.0000 0.19117  0.90662  0.22237  Biso   1.000  O
  O95      1.0000 0.22988  0.89025  0.05139  Biso   1.000  O
  O96      1.0000 0.15685  0.84621  0.04986  Biso   1.000  O
  O97      1.0000 0.16584  0.79128  0.15636  Biso   1.000  O
  O98      1.0000 0.23925  0.83910  0.16176  Biso   1.000  O
  N27      1.0000 0.24242  0.88772  0.51909  Biso   1.000  N
  N28      1.0000 0.31932  0.83629  0.51987  Biso   1.000  N
  C417     1.0000 0.24874  0.86103  0.48697  Biso   1.000  C
  C418     1.0000 0.22264  0.83265  0.42087  Biso   1.000  C
  C419     1.0000 0.22791  0.80431  0.39987  Biso   1.000  C
  H209     1.0000 0.21023  0.78427  0.36317  Biso   1.000  H
  C420     1.0000 0.25963  0.80504  0.43287  Biso   1.000  C
  H210     1.0000 0.26243  0.78547  0.41697  Biso   1.000  H
  C421     1.0000 0.28662  0.83391  0.48787  Biso   1.000  C
  C422     1.0000 0.28078  0.86216  0.52117  Biso   1.000  C
  C423     1.0000 0.30479  0.89165  0.58677  Biso   1.000  C
  H211     1.0000 0.32623  0.89337  0.60987  Biso   1.000  H
  C424     1.0000 0.29708  0.91759  0.61677  Biso   1.000  C
  H212     1.0000 0.31303  0.93677  0.66057  Biso   1.000  H
  C425     1.0000 0.26527  0.91521  0.58157  Biso   1.000  C
  H213     1.0000 0.25993  0.93287  0.60177  Biso   1.000  H
  C426     1.0000 0.33399  0.82523  0.45167  Biso   1.000  C
  H214     1.0000 0.32373  0.81777  0.38207  Biso   1.000  H
  C427     1.0000 0.36653  0.82364  0.47757  Biso   1.000  C
  C428     1.0000 0.37996  0.80994  0.39967  Biso   1.000  C
  H215     1.0000 0.36873  0.80257  0.33127  Biso   1.000  H
  C429     1.0000 0.41007  0.80708  0.42247  Biso   1.000  C
  H216     1.0000 0.41853  0.79737  0.36977  Biso   1.000  H
  C430     1.0000 0.42762  0.81858  0.52297  Biso   1.000  C
  C431     1.0000 0.41411  0.83261  0.60017  Biso   1.000  C
  H217     1.0000 0.42553  0.84037  0.66837  Biso   1.000  H
  C432     1.0000 0.38395  0.83526  0.57777  Biso   1.000  C
  H218     1.0000 0.37553  0.84497  0.63047  Biso   1.000  H
  C433     1.0000 0.46067  0.81615  0.54767  Biso   1.000  C
  H219     1.0000 0.47933  0.83887  0.57437  Biso   1.000  H
  H220     1.0000 0.45523  0.79817  0.60317  Biso   1.000  H
  H221     1.0000 0.46853  0.80987  0.48137  Biso   1.000  H
  C434     1.0000 0.30697  0.95233  0.28297  Biso   1.000  C
  C435     1.0000 0.26614  0.93387  0.26517  Biso   1.000  C
  C436     1.0000 0.25104  0.95504  0.24167  Biso   1.000  C
  H222     1.0000 0.26563  0.97977  0.23727  Biso   1.000  H
  C437     1.0000 0.21440  0.93965  0.22457  Biso   1.000  C
  C438     1.0000 0.19868  0.96400  0.20477  Biso   1.000  C
  C439     1.0000 0.25826  0.93060  0.90857  Biso   1.000  C
  C440     1.0000 0.22388  0.90108  0.96347  Biso   1.000  C
  C441     1.0000 0.19075  0.88959  0.91297  Biso   1.000  C
  H223     1.0000 0.18953  0.90027  0.84747  Biso   1.000  H
  C442     1.0000 0.15953  0.86210  0.96087  Biso   1.000  C
  C443     1.0000 0.12413  0.84903  0.89947  Biso   1.000  C
  C444     1.0000 0.14784  0.73207  0.10377  Biso   1.000  C
  C445     1.0000 0.17733  0.77044  0.12817  Biso   1.000  C
  C446     1.0000 0.21254  0.77817  0.11567  Biso   1.000  C
  H224     1.0000 0.21713  0.76007  0.09487  Biso   1.000  H
  C447     1.0000 0.24095  0.81255  0.13357  Biso   1.000  C
  C448     1.0000 0.27935  0.81913  0.11527  Biso   1.000  C
  F292     1.0000 0.32356  0.97755  0.20997  Biso   1.000  F
  F293     1.0000 0.31446  0.97133  0.37747  Biso   1.000  F
  F294     1.0000 0.31917  0.93171  0.29627  Biso   1.000  F
  Gd15     1.0000 0.80480  0.14537  0.79906  Biso   1.000  Gd
  F295     1.0000 0.67547  0.01346  0.72253  Biso   1.000  F
  F296     1.0000 0.68418  0.05748  0.63063  Biso   1.000  F
  F297     1.0000 0.67914  0.05769  0.80343  Biso   1.000  F
  F298     1.0000 0.81622  0.04189  0.89513  Biso   1.000  F
  F299     1.0000 0.77755  0.00150  0.79253  Biso   1.000  F
  F300     1.0000 0.82626  0.04174  0.72223  Biso   1.000  F
  F301     1.0000 0.71956  0.08100  0.11610  Biso   1.000  F
  F302     1.0000 0.72464  0.04193  0.02256  Biso   1.000  F
  F303     1.0000 0.74782  0.05665  0.18367  Biso   1.000  F
  F304     1.0000 0.89593  0.14080  0.04823  Biso   1.000  F
  F305     1.0000 0.87237  0.14106  0.20385  Biso   1.000  F
  F306     1.0000 0.89599  0.18708  0.09850  Biso   1.000  F
  F307     1.0000 0.86739  0.26943  0.99404  Biso   1.000  F
  F308     1.0000 0.84107  0.29151  0.89983  Biso   1.000  F
  F309     1.0000 0.87844  0.27943  0.82241  Biso   1.000  F
  F310     1.0000 0.71261  0.17658  0.99033  Biso   1.000  F
  F311     1.0000 0.71703  0.20825  0.84963  Biso   1.000  F
  F312     1.0000 0.69703  0.15282  0.83073  Biso   1.000  F
  O99      1.0000 0.80545  0.16502  0.61658  Biso   1.000  O
  O100     1.0000 0.74978  0.09939  0.72382  Biso   1.000  O
  O101     1.0000 0.80883  0.09338  0.77763  Biso   1.000  O
  O102     1.0000 0.77012  0.10975  0.94861  Biso   1.000  O
  O103     1.0000 0.84315  0.15379  0.95014  Biso   1.000  O
  O104     1.0000 0.83416  0.20872  0.84364  Biso   1.000  O
  O105     1.0000 0.76075  0.16090  0.83824  Biso   1.000  O
  N29      1.0000 0.75758  0.11228  0.48091  Biso   1.000  N
  N30      1.0000 0.68068  0.16371  0.48013  Biso   1.000  N
  C449     1.0000 0.75126  0.13897  0.51303  Biso   1.000  C
  C450     1.0000 0.77736  0.16735  0.57913  Biso   1.000  C
  C451     1.0000 0.77209  0.19569  0.60013  Biso   1.000  C
  H225     1.0000 0.78977  0.21573  0.63683  Biso   1.000  H
  C452     1.0000 0.74037  0.19496  0.56713  Biso   1.000  C
  H226     1.0000 0.73757  0.21453  0.58303  Biso   1.000  H
  C453     1.0000 0.71338  0.16609  0.51213  Biso   1.000  C
  C454     1.0000 0.71922  0.13784  0.47883  Biso   1.000  C
  C455     1.0000 0.69521  0.10835  0.41323  Biso   1.000  C
  H227     1.0000 0.67377  0.10663  0.39013  Biso   1.000  H
  C456     1.0000 0.70292  0.08241  0.38323  Biso   1.000  C
  H228     1.0000 0.68697  0.06323  0.33943  Biso   1.000  H
  C457     1.0000 0.73473  0.08479  0.41843  Biso   1.000  C
  H229     1.0000 0.74007  0.06713  0.39823  Biso   1.000  H
  C458     1.0000 0.66601  0.17477  0.54833  Biso   1.000  C
  H230     1.0000 0.67627  0.18223  0.61793  Biso   1.000  H
  C459     1.0000 0.63347  0.17636  0.52243  Biso   1.000  C
  C460     1.0000 0.62004  0.19006  0.60033  Biso   1.000  C
  H231     1.0000 0.63127  0.19743  0.66873  Biso   1.000  H
  C461     1.0000 0.58993  0.19292  0.57753  Biso   1.000  C
  H232     1.0000 0.58147  0.20263  0.63023  Biso   1.000  H
  C462     1.0000 0.57238  0.18142  0.47703  Biso   1.000  C
  C463     1.0000 0.58589  0.16739  0.39983  Biso   1.000  C
  H233     1.0000 0.57447  0.15963  0.33163  Biso   1.000  H
  C464     1.0000 0.61605  0.16474  0.42223  Biso   1.000  C
  H234     1.0000 0.62447  0.15503  0.36953  Biso   1.000  H
  C465     1.0000 0.53933  0.18385  0.45233  Biso   1.000  C
  H235     1.0000 0.52067  0.16113  0.42563  Biso   1.000  H
  H236     1.0000 0.54477  0.20183  0.39683  Biso   1.000  H
  H237     1.0000 0.53147  0.19013  0.51863  Biso   1.000  H
  C466     1.0000 0.69303  0.04767  0.71703  Biso   1.000  C
  C467     1.0000 0.73386  0.06613  0.73483  Biso   1.000  C
  C468     1.0000 0.74896  0.04496  0.75833  Biso   1.000  C
  H238     1.0000 0.73437  0.02023  0.76273  Biso   1.000  H
  C469     1.0000 0.78560  0.06035  0.77543  Biso   1.000  C
  C470     1.0000 0.80132  0.03600  0.79523  Biso   1.000  C
  C471     1.0000 0.74174  0.06940  0.09143  Biso   1.000  C
  C472     1.0000 0.77612  0.09892  0.03653  Biso   1.000  C
  C473     1.0000 0.80925  0.11041  0.08703  Biso   1.000  C
  H239     1.0000 0.81047  0.09973  0.15253  Biso   1.000  H
  C474     1.0000 0.84047  0.13790  0.03913  Biso   1.000  C
  C475     1.0000 0.87587  0.15097  0.10053  Biso   1.000  C
  C476     1.0000 0.85216  0.26793  0.89623  Biso   1.000  C
  C477     1.0000 0.82267  0.22956  0.87183  Biso   1.000  C
  C478     1.0000 0.78746  0.22183  0.88433  Biso   1.000  C
  H240     1.0000 0.78287  0.23993  0.90513  Biso   1.000  H
  C479     1.0000 0.75905  0.18745  0.86643  Biso   1.000  C
  C480     1.0000 0.72065  0.18087  0.88473  Biso   1.000  C
  F313     1.0000 0.67644  0.02245  0.79003  Biso   1.000  F
  F314     1.0000 0.68554  0.02867  0.62253  Biso   1.000  F
  F315     1.0000 0.68083  0.06829  0.70373  Biso   1.000  F
  Gd16     1.0000 0.86187  0.18796  0.53428  Biso   1.000  Gd
  F316     1.0000 0.99120  0.31987  0.61080  Biso   1.000  F
  F317     1.0000 0.98249  0.27585  0.70270  Biso   1.000  F
  F318     1.0000 0.98753  0.27564  0.52990  Biso   1.000  F
  F319     1.0000 0.85045  0.29144  0.43820  Biso   1.000  F
  F320     1.0000 0.88912  0.33183  0.54080  Biso   1.000  F
  F321     1.0000 0.84041  0.29159  0.61110  Biso   1.000  F
  F322     1.0000 0.94711  0.25233  0.21723  Biso   1.000  F
  F323     1.0000 0.94203  0.29140  0.31077  Biso   1.000  F
  F324     1.0000 0.91885  0.27668  0.14966  Biso   1.000  F
  F325     1.0000 0.77074  0.19253  0.28510  Biso   1.000  F
  F326     1.0000 0.79430  0.19227  0.12948  Biso   1.000  F
  F327     1.0000 0.77068  0.14625  0.23483  Biso   1.000  F
  F328     1.0000 0.79928  0.06390  0.33929  Biso   1.000  F
  F329     1.0000 0.82560  0.04182  0.43350  Biso   1.000  F
  F330     1.0000 0.78823  0.05390  0.51092  Biso   1.000  F
  F331     1.0000 0.95406  0.15675  0.34300  Biso   1.000  F
  F332     1.0000 0.94964  0.12508  0.48370  Biso   1.000  F
  F333     1.0000 0.96964  0.18051  0.50260  Biso   1.000  F
  O106     1.0000 0.86122  0.16831  0.71675  Biso   1.000  O
  O107     1.0000 0.91689  0.23394  0.60951  Biso   1.000  O
  O108     1.0000 0.85784  0.23995  0.55570  Biso   1.000  O
  O109     1.0000 0.89655  0.22358  0.38472  Biso   1.000  O
  O110     1.0000 0.82352  0.17954  0.38319  Biso   1.000  O
  O111     1.0000 0.83251  0.12461  0.48969  Biso   1.000  O
  O112     1.0000 0.90592  0.17243  0.49509  Biso   1.000  O
  N31      1.0000 0.90909  0.22105  0.85242  Biso   1.000  N
  N32      1.0000 0.98599  0.16962  0.85320  Biso   1.000  N
  C481     1.0000 0.91541  0.19436  0.82030  Biso   1.000  C
  C482     1.0000 0.88931  0.16598  0.75420  Biso   1.000  C
  C483     1.0000 0.89458  0.13764  0.73320  Biso   1.000  C
  H241     1.0000 0.87690  0.11760  0.69650  Biso   1.000  H
  C484     1.0000 0.92630  0.13837  0.76620  Biso   1.000  C
  H242     1.0000 0.92910  0.11880  0.75030  Biso   1.000  H
  C485     1.0000 0.95329  0.16724  0.82120  Biso   1.000  C
  C486     1.0000 0.94745  0.19549  0.85450  Biso   1.000  C
  C487     1.0000 0.97146  0.22498  0.92010  Biso   1.000  C
  H243     1.0000 0.99290  0.22670  0.94320  Biso   1.000  H
  C488     1.0000 0.96375  0.25092  0.95010  Biso   1.000  C
  H244     1.0000 0.97970  0.27010  0.99390  Biso   1.000  H
  C489     1.0000 0.93194  0.24854  0.91490  Biso   1.000  C
  H245     1.0000 0.92660  0.26620  0.93510  Biso   1.000  H
  C490     1.0000 0.00066  0.15856  0.78500  Biso   1.000  C
  H246     1.0000 0.99040  0.15110  0.71540  Biso   1.000  H
  C491     1.0000 0.03320  0.15697  0.81090  Biso   1.000  C
  C492     1.0000 0.04663  0.14327  0.73300  Biso   1.000  C
  H247     1.0000 0.03540  0.13590  0.66460  Biso   1.000  H
  C493     1.0000 0.07674  0.14041  0.75580  Biso   1.000  C
  H248     1.0000 0.08520  0.13070  0.70310  Biso   1.000  H
  C494     1.0000 0.09429  0.15191  0.85630  Biso   1.000  C
  C495     1.0000 0.08078  0.16594  0.93350  Biso   1.000  C
  H249     1.0000 0.09220  0.17370  0.00170  Biso   1.000  H
  C496     1.0000 0.05062  0.16859  0.91110  Biso   1.000  C
  H250     1.0000 0.04220  0.17830  0.96380  Biso   1.000  H
  C497     1.0000 0.12734  0.14948  0.88100  Biso   1.000  C
  H251     1.0000 0.14600  0.17220  0.90770  Biso   1.000  H
  H252     1.0000 0.12190  0.13150  0.93650  Biso   1.000  H
  H253     1.0000 0.13520  0.14320  0.81470  Biso   1.000  H
  C498     1.0000 0.97364  0.28566  0.61630  Biso   1.000  C
  C499     1.0000 0.93281  0.26720  0.59850  Biso   1.000  C
  C500     1.0000 0.91771  0.28837  0.57500  Biso   1.000  C
  H254     1.0000 0.93230  0.31310  0.57060  Biso   1.000  H
  C501     1.0000 0.88107  0.27298  0.55790  Biso   1.000  C
  C502     1.0000 0.86535  0.29733  0.53810  Biso   1.000  C
  C503     1.0000 0.92493  0.26393  0.24190  Biso   1.000  C
  C504     1.0000 0.89055  0.23441  0.29680  Biso   1.000  C
  C505     1.0000 0.85742  0.22292  0.24630  Biso   1.000  C
  H255     1.0000 0.85620  0.23360  0.18080  Biso   1.000  H
  C506     1.0000 0.82620  0.19543  0.29420  Biso   1.000  C
  C507     1.0000 0.79080  0.18236  0.23280  Biso   1.000  C
  C508     1.0000 0.81451  0.06540  0.43710  Biso   1.000  C
  C509     1.0000 0.84400  0.10377  0.46150  Biso   1.000  C
  C510     1.0000 0.87921  0.11150  0.44900  Biso   1.000  C
  H256     1.0000 0.88380  0.09340  0.42820  Biso   1.000  H
  C511     1.0000 0.90762  0.14588  0.46690  Biso   1.000  C
  C512     1.0000 0.94602  0.15246  0.44860  Biso   1.000  C
  F334     1.0000 0.99023  0.31088  0.54330  Biso   1.000  F
  F335     1.0000 0.98113  0.30466  0.71080  Biso   1.000  F
  F336     1.0000 0.98584  0.26504  0.62960  Biso   1.000  F
  Gd17     1.0000 0.47147  0.47870  0.13239  Biso   1.000  Gd
  F337     1.0000 0.34213  0.34680  0.05587  Biso   1.000  F
  F338     1.0000 0.35084  0.39082  0.96397  Biso   1.000  F
  F339     1.0000 0.34580  0.39103  0.13677  Biso   1.000  F
  F340     1.0000 0.48288  0.37523  0.22847  Biso   1.000  F
  F341     1.0000 0.44421  0.33484  0.12587  Biso   1.000  F
  F342     1.0000 0.49292  0.37508  0.05557  Biso   1.000  F
  F343     1.0000 0.38622  0.41434  0.44944  Biso   1.000  F
  F344     1.0000 0.39130  0.37527  0.35590  Biso   1.000  F
  F345     1.0000 0.41448  0.38999  0.51701  Biso   1.000  F
  F346     1.0000 0.56259  0.47414  0.38157  Biso   1.000  F
  F347     1.0000 0.53903  0.47440  0.53719  Biso   1.000  F
  F348     1.0000 0.56265  0.52042  0.43184  Biso   1.000  F
  F349     1.0000 0.53405  0.60277  0.32738  Biso   1.000  F
  F350     1.0000 0.50773  0.62485  0.23317  Biso   1.000  F
  F351     1.0000 0.54510  0.61277  0.15575  Biso   1.000  F
  F352     1.0000 0.37927  0.50992  0.32367  Biso   1.000  F
  F353     1.0000 0.38369  0.54159  0.18297  Biso   1.000  F
  F354     1.0000 0.36369  0.48616  0.16407  Biso   1.000  F
  O113     1.0000 0.47211  0.49836  0.94992  Biso   1.000  O
  O114     1.0000 0.41644  0.43273  0.05716  Biso   1.000  O
  O115     1.0000 0.47549  0.42672  0.11097  Biso   1.000  O
  O116     1.0000 0.43678  0.44309  0.28195  Biso   1.000  O
  O117     1.0000 0.50981  0.48713  0.28348  Biso   1.000  O
  O118     1.0000 0.50082  0.54206  0.17698  Biso   1.000  O
  O119     1.0000 0.42741  0.49424  0.17158  Biso   1.000  O
  N33      1.0000 0.42424  0.44562  0.81425  Biso   1.000  N
  N34      1.0000 0.34734  0.49705  0.81347  Biso   1.000  N
  C513     1.0000 0.41792  0.47231  0.84637  Biso   1.000  C
  C514     1.0000 0.44402  0.50069  0.91247  Biso   1.000  C
  C515     1.0000 0.43875  0.52903  0.93347  Biso   1.000  C
  H257     1.0000 0.45643  0.54907  0.97017  Biso   1.000  H
  C516     1.0000 0.40703  0.52830  0.90047  Biso   1.000  C
  H258     1.0000 0.40423  0.54787  0.91637  Biso   1.000  H
  C517     1.0000 0.38004  0.49943  0.84547  Biso   1.000  C
  C518     1.0000 0.38588  0.47118  0.81217  Biso   1.000  C
  C519     1.0000 0.36187  0.44169  0.74657  Biso   1.000  C
  H259     1.0000 0.34043  0.43997  0.72347  Biso   1.000  H
  C520     1.0000 0.36958  0.41575  0.71657  Biso   1.000  C
  H260     1.0000 0.35363  0.39657  0.67277  Biso   1.000  H
  C521     1.0000 0.40139  0.41813  0.75177  Biso   1.000  C
  H261     1.0000 0.40673  0.40047  0.73157  Biso   1.000  H
  C522     1.0000 0.33267  0.50811  0.88167  Biso   1.000  C
  H262     1.0000 0.34293  0.51557  0.95127  Biso   1.000  H
  C523     1.0000 0.30013  0.50970  0.85577  Biso   1.000  C
  C524     1.0000 0.28670  0.52340  0.93367  Biso   1.000  C
  H263     1.0000 0.29793  0.53077  0.00207  Biso   1.000  H
  C525     1.0000 0.25659  0.52626  0.91087  Biso   1.000  C
  H264     1.0000 0.24813  0.53597  0.96357  Biso   1.000  H
  C526     1.0000 0.23904  0.51476  0.81037  Biso   1.000  C
  C527     1.0000 0.25255  0.50073  0.73317  Biso   1.000  C
  H265     1.0000 0.24113  0.49297  0.66497  Biso   1.000  H
  C528     1.0000 0.28271  0.49808  0.75557  Biso   1.000  C
  H266     1.0000 0.29113  0.48837  0.70287  Biso   1.000  H
  C529     1.0000 0.20599  0.51719  0.78567  Biso   1.000  C
  H267     1.0000 0.18733  0.49447  0.75897  Biso   1.000  H
  H268     1.0000 0.21143  0.53517  0.73017  Biso   1.000  H
  H269     1.0000 0.19813  0.52347  0.85197  Biso   1.000  H
  C530     1.0000 0.35969  0.38101  0.05037  Biso   1.000  C
  C531     1.0000 0.40052  0.39947  0.06817  Biso   1.000  C
  C532     1.0000 0.41562  0.37830  0.09167  Biso   1.000  C
  H270     1.0000 0.40103  0.35357  0.09607  Biso   1.000  H
  C533     1.0000 0.45226  0.39369  0.10877  Biso   1.000  C
  C534     1.0000 0.46798  0.36934  0.12857  Biso   1.000  C
  C535     1.0000 0.40840  0.40274  0.42477  Biso   1.000  C
  C536     1.0000 0.44278  0.43226  0.36987  Biso   1.000  C
  C537     1.0000 0.47591  0.44375  0.42037  Biso   1.000  C
  H271     1.0000 0.47713  0.43307  0.48587  Biso   1.000  H
  C538     1.0000 0.50713  0.47124  0.37247  Biso   1.000  C
  C539     1.0000 0.54253  0.48431  0.43387  Biso   1.000  C
  C540     1.0000 0.51882  0.60127  0.22957  Biso   1.000  C
  C541     1.0000 0.48933  0.56290  0.20517  Biso   1.000  C
  C542     1.0000 0.45412  0.55517  0.21767  Biso   1.000  C
  H272     1.0000 0.44953  0.57327  0.23847  Biso   1.000  H
  C543     1.0000 0.42571  0.52079  0.19977  Biso   1.000  C
  C544     1.0000 0.38731  0.51421  0.21807  Biso   1.000  C
  F355     1.0000 0.34310  0.35579  0.12337  Biso   1.000  F
  F356     1.0000 0.35220  0.36201  0.95587  Biso   1.000  F
  F357     1.0000 0.34749  0.40163  0.03707  Biso   1.000  F
  Gd18     1.0000 0.52853  0.52130  0.86761  Biso   1.000  Gd
  F358     1.0000 0.65787  0.65320  0.94413  Biso   1.000  F
  F359     1.0000 0.64916  0.60918  0.03603  Biso   1.000  F
  F360     1.0000 0.65420  0.60897  0.86323  Biso   1.000  F
  F361     1.0000 0.51712  0.62477  0.77153  Biso   1.000  F
  F362     1.0000 0.55579  0.66516  0.87413  Biso   1.000  F
  F363     1.0000 0.50708  0.62492  0.94443  Biso   1.000  F
  F364     1.0000 0.61378  0.58566  0.55056  Biso   1.000  F
  F365     1.0000 0.60870  0.62473  0.64410  Biso   1.000  F
  F366     1.0000 0.58552  0.61001  0.48299  Biso   1.000  F
  F367     1.0000 0.43741  0.52586  0.61843  Biso   1.000  F
  F368     1.0000 0.46097  0.52560  0.46281  Biso   1.000  F
  F369     1.0000 0.43735  0.47958  0.56816  Biso   1.000  F
  F370     1.0000 0.46595  0.39723  0.67262  Biso   1.000  F
  F371     1.0000 0.49227  0.37515  0.76683  Biso   1.000  F
  F372     1.0000 0.45490  0.38723  0.84425  Biso   1.000  F
  F373     1.0000 0.62073  0.49008  0.67633  Biso   1.000  F
  F374     1.0000 0.61631  0.45841  0.81703  Biso   1.000  F
  F375     1.0000 0.63631  0.51384  0.83593  Biso   1.000  F
  O120     1.0000 0.52789  0.50164  0.05008  Biso   1.000  O
  O121     1.0000 0.58356  0.56727  0.94284  Biso   1.000  O
  O122     1.0000 0.52451  0.57328  0.88903  Biso   1.000  O
  O123     1.0000 0.56322  0.55691  0.71805  Biso   1.000  O
  O124     1.0000 0.49019  0.51287  0.71652  Biso   1.000  O
  O125     1.0000 0.49918  0.45794  0.82302  Biso   1.000  O
  O126     1.0000 0.57259  0.50576  0.82842  Biso   1.000  O
  N35      1.0000 0.57576  0.55438  0.18575  Biso   1.000  N
  N36      1.0000 0.65266  0.50295  0.18653  Biso   1.000  N
  C545     1.0000 0.58208  0.52769  0.15363  Biso   1.000  C
  C546     1.0000 0.55598  0.49931  0.08753  Biso   1.000  C
  C547     1.0000 0.56125  0.47097  0.06653  Biso   1.000  C
  H273     1.0000 0.54357  0.45093  0.02983  Biso   1.000  H
  C548     1.0000 0.59297  0.47170  0.09953  Biso   1.000  C
  H274     1.0000 0.59577  0.45213  0.08363  Biso   1.000  H
  C549     1.0000 0.61996  0.50057  0.15453  Biso   1.000  C
  C550     1.0000 0.61412  0.52882  0.18783  Biso   1.000  C
  C551     1.0000 0.63813  0.55831  0.25343  Biso   1.000  C
  H275     1.0000 0.65957  0.56003  0.27653  Biso   1.000  H
  C552     1.0000 0.63042  0.58425  0.28343  Biso   1.000  C
  H276     1.0000 0.64637  0.60343  0.32723  Biso   1.000  H
  C553     1.0000 0.59861  0.58187  0.24823  Biso   1.000  C
  H277     1.0000 0.59327  0.59953  0.26843  Biso   1.000  H
  C554     1.0000 0.66733  0.49189  0.11833  Biso   1.000  C
  H278     1.0000 0.65707  0.48443  0.04873  Biso   1.000  H
  C555     1.0000 0.69987  0.49030  0.14423  Biso   1.000  C
  C556     1.0000 0.71330  0.47660  0.06633  Biso   1.000  C
  H279     1.0000 0.70207  0.46923  0.99793  Biso   1.000  H
  C557     1.0000 0.74341  0.47374  0.08913  Biso   1.000  C
  H280     1.0000 0.75187  0.46403  0.03643  Biso   1.000  H
  C558     1.0000 0.76096  0.48524  0.18963  Biso   1.000  C
  C559     1.0000 0.74745  0.49927  0.26683  Biso   1.000  C
  H281     1.0000 0.75887  0.50703  0.33503  Biso   1.000  H
  C560     1.0000 0.71729  0.50192  0.24443  Biso   1.000  C
  H282     1.0000 0.70887  0.51163  0.29713  Biso   1.000  H
  C561     1.0000 0.79401  0.48281  0.21433  Biso   1.000  C
  H283     1.0000 0.81267  0.50553  0.24103  Biso   1.000  H
  H284     1.0000 0.78857  0.46483  0.26983  Biso   1.000  H
  H285     1.0000 0.80187  0.47653  0.14803  Biso   1.000  H
  C562     1.0000 0.64031  0.61899  0.94963  Biso   1.000  C
  C563     1.0000 0.59948  0.60053  0.93183  Biso   1.000  C
  C564     1.0000 0.58438  0.62170  0.90833  Biso   1.000  C
  H286     1.0000 0.59897  0.64643  0.90393  Biso   1.000  H
  C565     1.0000 0.54774  0.60631  0.89123  Biso   1.000  C
  C566     1.0000 0.53202  0.63066  0.87143  Biso   1.000  C
  C567     1.0000 0.59160  0.59726  0.57523  Biso   1.000  C
  C568     1.0000 0.55722  0.56774  0.63013  Biso   1.000  C
  C569     1.0000 0.52409  0.55625  0.57963  Biso   1.000  C
  H287     1.0000 0.52287  0.56693  0.51413  Biso   1.000  H
  C570     1.0000 0.49287  0.52876  0.62753  Biso   1.000  C
  C571     1.0000 0.45747  0.51569  0.56613  Biso   1.000  C
  C572     1.0000 0.48118  0.39873  0.77043  Biso   1.000  C
  C573     1.0000 0.51067  0.43710  0.79483  Biso   1.000  C
  C574     1.0000 0.54588  0.44483  0.78233  Biso   1.000  C
  H288     1.0000 0.55047  0.42673  0.76153  Biso   1.000  H
  C575     1.0000 0.57429  0.47921  0.80023  Biso   1.000  C
  C576     1.0000 0.61269  0.48579  0.78193  Biso   1.000  C
  F376     1.0000 0.65690  0.64421  0.87663  Biso   1.000  F
  F377     1.0000 0.64780  0.63799  0.04413  Biso   1.000  F
  F378     1.0000 0.65251  0.59837  0.96293  Biso   1.000  F
