data_image0
_cell_length_a       32.566
_cell_length_b       9.518
_cell_length_c       32.709
_cell_angle_alpha    90
_cell_angle_beta     108.281
_cell_angle_gamma    90

_symmetry_space_group_name_H-M    "P 1"
_symmetry_int_tables_number       1

loop_
  _symmetry_equiv_pos_as_xyz
  'x, y, z'

loop_
  _atom_site_label
  _atom_site_occupancy
  _atom_site_fract_x
  _atom_site_fract_y
  _atom_site_fract_z
  _atom_site_thermal_displace_type
  _atom_site_B_iso_or_equiv
  _atom_site_type_symbol
  Co1      1.0000 0.01369  0.25395  0.46629  Biso   1.000  Co
  N1       1.0000 0.03048  0.15490  0.52093  Biso   1.000  N
  N2       1.0000 0.06550  0.18520  0.45506  Biso   1.000  N
  N3       1.0000 0.96753  0.34730  0.48137  Biso   1.000  N
  N4       1.0000 0.99196  0.32910  0.40807  Biso   1.000  N
  N5       1.0000 0.25850  0.61080  0.59410  Biso   1.000  N
  C1       1.0000 0.96170  0.23730  0.58900  Biso   1.000  C
  C2       1.0000 0.93190  0.23130  0.66260  Biso   1.000  C
  C3       1.0000 0.97690  0.24210  0.55260  Biso   1.000  C
  C4       1.0000 0.06590  0.26270  0.34110  Biso   1.000  C
  C5       1.0000 0.09940  0.05020  0.52090  Biso   1.000  C
  C6       1.0000 0.00710  0.14390  0.55040  Biso   1.000  C
  N6       1.0000 0.24470  0.71590  0.61410  Biso   1.000  N
  N7       1.0000 0.12090  0.24230  0.24110  Biso   1.000  N
  N8       1.0000 0.78700  0.79770  0.31580  Biso   1.000  N
  C7       1.0000 0.13730  0.96080  0.54410  Biso   1.000  C
  C8       1.0000 0.92950  0.46470  0.41300  Biso   1.000  C
  C9       1.0000 0.96050  0.34460  0.52100  Biso   1.000  C
  C10      1.0000 0.89220  0.55430  0.38980  Biso   1.000  C
  N9       1.0000 0.91750  0.22810  0.69920  Biso   1.000  N
  C11      1.0000 0.82200  0.71450  0.34080  Biso   1.000  C
  C12      1.0000 0.96670  0.30960  0.66280  Biso   1.000  C
  H1       1.0000 0.98150  0.35980  0.68740  Biso   1.000  H
  C13      1.0000 0.10940  0.36420  0.30230  Biso   1.000  C
  H2       1.0000 0.12700  0.43790  0.29930  Biso   1.000  H
  C14      1.0000 0.05940  0.98200  0.57130  Biso   1.000  C
  H3       1.0000 0.07680  0.90820  0.58550  Biso   1.000  H
  C15      1.0000 0.05020  0.25910  0.38000  Biso   1.000  C
  C16      1.0000 0.20880  0.80450  0.58990  Biso   1.000  C
  C17      1.0000 0.91590  0.50940  0.48290  Biso   1.000  C
  H4       1.0000 0.89520  0.58000  0.47410  Biso   1.000  H
  C18      1.0000 0.10100  0.25630  0.27360  Biso   1.000  C
  C19      1.0000 0.89730  0.68020  0.37080  Biso   1.000  C
  H5       1.0000 0.92520  0.71290  0.37470  Biso   1.000  H
  C20      1.0000 0.93850  0.44400  0.45740  Biso   1.000  C
  C21      1.0000 0.06400  0.05780  0.53540  Biso   1.000  C
  C22      1.0000 0.00800  0.30720  0.37490  Biso   1.000  C
  C23      1.0000 0.95300  0.40010  0.39020  Biso   1.000  C
  C24      1.0000 0.16560  0.01260  0.58220  Biso   1.000  C
  H6       1.0000 0.16090  0.10040  0.59230  Biso   1.000  H
  C25      1.0000 0.98060  0.31580  0.62680  Biso   1.000  C
  H7       1.0000 0.00360  0.37480  0.62770  Biso   1.000  H
  C26      1.0000 0.92530  0.16760  0.59070  Biso   1.000  C
  H8       1.0000 0.90870  0.12300  0.56560  Biso   1.000  H
  C27      1.0000 0.02500  0.03730  0.58090  Biso   1.000  C
  H9       1.0000 0.01510  0.01010  0.60350  Biso   1.000  H
  C28      1.0000 0.09970  0.11780  0.48390  Biso   1.000  C
  C29      1.0000 0.87640  0.20660  0.73930  Biso   1.000  C
  H10      1.0000 0.85260  0.19000  0.74850  Biso   1.000  H
  C30      1.0000 0.97880  0.35610  0.33520  Biso   1.000  C
  H11      1.0000 0.98250  0.35040  0.30810  Biso   1.000  H
  C31      1.0000 0.94440  0.41300  0.34480  Biso   1.000  C
  H12      1.0000 0.92000  0.45280  0.32530  Biso   1.000  H
  C32      1.0000 0.09210  0.36530  0.33580  Biso   1.000  C
  H13      1.0000 0.09870  0.43950  0.35530  Biso   1.000  H
  C33      1.0000 0.92970  0.45090  0.52210  Biso   1.000  C
  H14      1.0000 0.92090  0.47480  0.54570  Biso   1.000  H
  C34      1.0000 0.85020  0.51230  0.38370  Biso   1.000  C
  H15      1.0000 0.84530  0.42830  0.39590  Biso   1.000  H
  C35      1.0000 0.87730  0.20460  0.69890  Biso   1.000  C
  H16      1.0000 0.85370  0.18920  0.67450  Biso   1.000  H
  N10      1.0000 0.11280  0.14490  0.20870  Biso   1.000  N
  N11      1.0000 0.79390  0.89550  0.28940  Biso   1.000  N
  C36      1.0000 0.12160  0.16890  0.42610  Biso   1.000  C
  H17      1.0000 0.13760  0.17820  0.40720  Biso   1.000  H
  C37      1.0000 0.07380  0.14840  0.27820  Biso   1.000  C
  H18      1.0000 0.06740  0.07440  0.25860  Biso   1.000  H
  C38      1.0000 0.07770  0.21250  0.41870  Biso   1.000  C
  C39      1.0000 0.75630  0.95440  0.27250  Biso   1.000  C
  H19      1.0000 0.75140  0.02700  0.25250  Biso   1.000  H
  C40      1.0000 0.91090  0.15770  0.62650  Biso   1.000  C
  H20      1.0000 0.88730  0.10140  0.62570  Biso   1.000  H
  C41      1.0000 0.13530  0.11110  0.46630  Biso   1.000  C
  H21      1.0000 0.16260  0.07400  0.48000  Biso   1.000  H
  C42      1.0000 0.72580  0.90040  0.28660  Biso   1.000  C
  H22      1.0000 0.69690  0.92760  0.27910  Biso   1.000  H
  C43      1.0000 0.74540  0.79760  0.31430  Biso   1.000  C
  H23      1.0000 0.73250  0.73830  0.32940  Biso   1.000  H
  C44      1.0000 0.20150  0.93130  0.60540  Biso   1.000  C
  H24      1.0000 0.22020  0.96450  0.63130  Biso   1.000  H
  C45      1.0000 0.15080  0.34050  0.24010  Biso   1.000  C
  H25      1.0000 0.15970  0.41800  0.25800  Biso   1.000  H
  C46      1.0000 0.81480  0.59140  0.35970  Biso   1.000  C
  H26      1.0000 0.78670  0.56170  0.35660  Biso   1.000  H
  C47      1.0000 0.14480  0.83330  0.52970  Biso   1.000  C
  H27      1.0000 0.12560  0.79890  0.50420  Biso   1.000  H
  C48      1.0000 0.14300  0.18220  0.18800  Biso   1.000  C
  H28      1.0000 0.14780  0.13550  0.16490  Biso   1.000  H
  C49      1.0000 0.18110  0.75000  0.55250  Biso   1.000  C
  H29      1.0000 0.18590  0.66220  0.54240  Biso   1.000  H
  C50      1.0000 0.16420  0.30110  0.20820  Biso   1.000  C
  H30      1.0000 0.18550  0.34770  0.20000  Biso   1.000  H
  C51      1.0000 0.05610  0.15100  0.31200  Biso   1.000  C
  H31      1.0000 0.03790  0.07900  0.31500  Biso   1.000  H
  C52      1.0000 0.29510  0.62240  0.66650  Biso   1.000  C
  H32      1.0000 0.31410  0.60070  0.69360  Biso   1.000  H
  C53      1.0000 0.86330  0.75890  0.34650  Biso   1.000  C
  H33      1.0000 0.86820  0.84220  0.33390  Biso   1.000  H
  N12      1.0000 0.94400  0.25090  0.73960  Biso   1.000  N
  C54      1.0000 0.26520  0.72530  0.65620  Biso   1.000  C
  H34      1.0000 0.25990  0.79090  0.67500  Biso   1.000  H
  C55      1.0000 0.91840  0.23870  0.76490  Biso   1.000  C
  H35      1.0000 0.92730  0.25000  0.79470  Biso   1.000  H
  C56      1.0000 0.29150  0.55730  0.62850  Biso   1.000  C
  H36      1.0000 0.30940  0.48400  0.62590  Biso   1.000  H
  Co2      1.0000 0.51369  0.75395  0.96629  Biso   1.000  Co
  N13      1.0000 0.53048  0.65490  0.02093  Biso   1.000  N
  N14      1.0000 0.56550  0.68520  0.95506  Biso   1.000  N
  N15      1.0000 0.46753  0.84730  0.98137  Biso   1.000  N
  N16      1.0000 0.49196  0.82910  0.90807  Biso   1.000  N
  N17      1.0000 0.75850  0.11080  0.09410  Biso   1.000  N
  C57      1.0000 0.46170  0.73730  0.08900  Biso   1.000  C
  C58      1.0000 0.43190  0.73130  0.16260  Biso   1.000  C
  C59      1.0000 0.47690  0.74210  0.05260  Biso   1.000  C
  C60      1.0000 0.56590  0.76270  0.84110  Biso   1.000  C
  C61      1.0000 0.59940  0.55020  0.02090  Biso   1.000  C
  C62      1.0000 0.50710  0.64390  0.05040  Biso   1.000  C
  N18      1.0000 0.74470  0.21590  0.11410  Biso   1.000  N
  N19      1.0000 0.62090  0.74230  0.74110  Biso   1.000  N
  N20      1.0000 0.28700  0.29770  0.81580  Biso   1.000  N
  C63      1.0000 0.63730  0.46080  0.04410  Biso   1.000  C
  C64      1.0000 0.42950  0.96470  0.91300  Biso   1.000  C
  C65      1.0000 0.46050  0.84460  0.02100  Biso   1.000  C
  C66      1.0000 0.39220  0.05430  0.88980  Biso   1.000  C
  N21      1.0000 0.41750  0.72810  0.19920  Biso   1.000  N
  C67      1.0000 0.32200  0.21450  0.84080  Biso   1.000  C
  C68      1.0000 0.46670  0.80960  0.16280  Biso   1.000  C
  H37      1.0000 0.48150  0.85980  0.18740  Biso   1.000  H
  C69      1.0000 0.60940  0.86420  0.80230  Biso   1.000  C
  H38      1.0000 0.62700  0.93790  0.79930  Biso   1.000  H
  C70      1.0000 0.55940  0.48200  0.07130  Biso   1.000  C
  H39      1.0000 0.57680  0.40820  0.08550  Biso   1.000  H
  C71      1.0000 0.55020  0.75910  0.88000  Biso   1.000  C
  C72      1.0000 0.70880  0.30450  0.08990  Biso   1.000  C
  C73      1.0000 0.41590  0.00940  0.98290  Biso   1.000  C
  H40      1.0000 0.39520  0.08000  0.97410  Biso   1.000  H
  C74      1.0000 0.60100  0.75630  0.77360  Biso   1.000  C
  C75      1.0000 0.39730  0.18020  0.87080  Biso   1.000  C
  H41      1.0000 0.42520  0.21290  0.87470  Biso   1.000  H
  C76      1.0000 0.43850  0.94400  0.95740  Biso   1.000  C
  C77      1.0000 0.56400  0.55780  0.03540  Biso   1.000  C
  C78      1.0000 0.50800  0.80720  0.87490  Biso   1.000  C
  C79      1.0000 0.45300  0.90010  0.89020  Biso   1.000  C
  C80      1.0000 0.66560  0.51260  0.08220  Biso   1.000  C
  H42      1.0000 0.66090  0.60040  0.09230  Biso   1.000  H
  C81      1.0000 0.48060  0.81580  0.12680  Biso   1.000  C
  H43      1.0000 0.50360  0.87480  0.12770  Biso   1.000  H
  C82      1.0000 0.42530  0.66760  0.09070  Biso   1.000  C
  H44      1.0000 0.40870  0.62300  0.06560  Biso   1.000  H
  C83      1.0000 0.52500  0.53730  0.08090  Biso   1.000  C
  H45      1.0000 0.51510  0.51010  0.10350  Biso   1.000  H
  C84      1.0000 0.59970  0.61780  0.98390  Biso   1.000  C
  C85      1.0000 0.37640  0.70660  0.23930  Biso   1.000  C
  H46      1.0000 0.35260  0.69000  0.24850  Biso   1.000  H
  C86      1.0000 0.47880  0.85610  0.83520  Biso   1.000  C
  H47      1.0000 0.48250  0.85040  0.80810  Biso   1.000  H
  C87      1.0000 0.44440  0.91300  0.84480  Biso   1.000  C
  H48      1.0000 0.42000  0.95280  0.82530  Biso   1.000  H
  C88      1.0000 0.59210  0.86530  0.83580  Biso   1.000  C
  H49      1.0000 0.59870  0.93950  0.85530  Biso   1.000  H
  C89      1.0000 0.42970  0.95090  0.02210  Biso   1.000  C
  H50      1.0000 0.42090  0.97480  0.04570  Biso   1.000  H
  C90      1.0000 0.35020  0.01230  0.88370  Biso   1.000  C
  H51      1.0000 0.34530  0.92830  0.89590  Biso   1.000  H
  C91      1.0000 0.37730  0.70460  0.19890  Biso   1.000  C
  H52      1.0000 0.35370  0.68920  0.17450  Biso   1.000  H
  N22      1.0000 0.61280  0.64490  0.70870  Biso   1.000  N
  N23      1.0000 0.29390  0.39550  0.78940  Biso   1.000  N
  C92      1.0000 0.62160  0.66890  0.92610  Biso   1.000  C
  H53      1.0000 0.63760  0.67820  0.90720  Biso   1.000  H
  C93      1.0000 0.57380  0.64840  0.77820  Biso   1.000  C
  H54      1.0000 0.56740  0.57440  0.75860  Biso   1.000  H
  C94      1.0000 0.57770  0.71250  0.91870  Biso   1.000  C
  C95      1.0000 0.25630  0.45440  0.77250  Biso   1.000  C
  H55      1.0000 0.25140  0.52700  0.75250  Biso   1.000  H
  C96      1.0000 0.41090  0.65770  0.12650  Biso   1.000  C
  H56      1.0000 0.38730  0.60140  0.12570  Biso   1.000  H
  C97      1.0000 0.63530  0.61110  0.96630  Biso   1.000  C
  H57      1.0000 0.66260  0.57400  0.98000  Biso   1.000  H
  C98      1.0000 0.22580  0.40040  0.78660  Biso   1.000  C
  H58      1.0000 0.19690  0.42760  0.77910  Biso   1.000  H
  C99      1.0000 0.24540  0.29760  0.81430  Biso   1.000  C
  H59      1.0000 0.23250  0.23830  0.82940  Biso   1.000  H
  C100     1.0000 0.70150  0.43130  0.10540  Biso   1.000  C
  H60      1.0000 0.72020  0.46450  0.13130  Biso   1.000  H
  C101     1.0000 0.65080  0.84050  0.74010  Biso   1.000  C
  H61      1.0000 0.65970  0.91800  0.75800  Biso   1.000  H
  C102     1.0000 0.31480  0.09140  0.85970  Biso   1.000  C
  H62      1.0000 0.28670  0.06170  0.85660  Biso   1.000  H
  C103     1.0000 0.64480  0.33330  0.02970  Biso   1.000  C
  H63      1.0000 0.62560  0.29890  0.00420  Biso   1.000  H
  C104     1.0000 0.64300  0.68220  0.68800  Biso   1.000  C
  H64      1.0000 0.64780  0.63550  0.66490  Biso   1.000  H
  C105     1.0000 0.68110  0.25000  0.05250  Biso   1.000  C
  H65      1.0000 0.68590  0.16220  0.04240  Biso   1.000  H
  C106     1.0000 0.66420  0.80110  0.70820  Biso   1.000  C
  H66      1.0000 0.68550  0.84770  0.70000  Biso   1.000  H
  C107     1.0000 0.55610  0.65100  0.81200  Biso   1.000  C
  H67      1.0000 0.53790  0.57900  0.81500  Biso   1.000  H
  C108     1.0000 0.79510  0.12240  0.16650  Biso   1.000  C
  H68      1.0000 0.81410  0.10070  0.19360  Biso   1.000  H
  C109     1.0000 0.36330  0.25890  0.84650  Biso   1.000  C
  H69      1.0000 0.36820  0.34220  0.83390  Biso   1.000  H
  N24      1.0000 0.44400  0.75090  0.23960  Biso   1.000  N
  C110     1.0000 0.76520  0.22530  0.15620  Biso   1.000  C
  H70      1.0000 0.75990  0.29090  0.17500  Biso   1.000  H
  C111     1.0000 0.41840  0.73870  0.26490  Biso   1.000  C
  H71      1.0000 0.42730  0.75000  0.29470  Biso   1.000  H
  C112     1.0000 0.79150  0.05730  0.12850  Biso   1.000  C
  H72      1.0000 0.80940  0.98400  0.12590  Biso   1.000  H
  Co3      1.0000 0.98631  0.25395  0.03371  Biso   1.000  Co
  N25      1.0000 0.96952  0.15490  0.97907  Biso   1.000  N
  N26      1.0000 0.93450  0.18520  0.04494  Biso   1.000  N
  N27      1.0000 0.03247  0.34730  0.01863  Biso   1.000  N
  N28      1.0000 0.00804  0.32910  0.09193  Biso   1.000  N
  N29      1.0000 0.74150  0.61080  0.90590  Biso   1.000  N
  C113     1.0000 0.03830  0.23730  0.91100  Biso   1.000  C
  C114     1.0000 0.06810  0.23130  0.83740  Biso   1.000  C
  C115     1.0000 0.02310  0.24210  0.94740  Biso   1.000  C
  C116     1.0000 0.93410  0.26270  0.15890  Biso   1.000  C
  C117     1.0000 0.90060  0.05020  0.97910  Biso   1.000  C
  C118     1.0000 0.99290  0.14390  0.94960  Biso   1.000  C
  N30      1.0000 0.75530  0.71590  0.88590  Biso   1.000  N
  N31      1.0000 0.87910  0.24230  0.25890  Biso   1.000  N
  N32      1.0000 0.21300  0.79770  0.18420  Biso   1.000  N
  C119     1.0000 0.86270  0.96080  0.95590  Biso   1.000  C
  C120     1.0000 0.07050  0.46470  0.08700  Biso   1.000  C
  C121     1.0000 0.03950  0.34460  0.97900  Biso   1.000  C
  C122     1.0000 0.10780  0.55430  0.11020  Biso   1.000  C
  N33      1.0000 0.08250  0.22810  0.80080  Biso   1.000  N
  C123     1.0000 0.17800  0.71450  0.15920  Biso   1.000  C
  C124     1.0000 0.03330  0.30960  0.83720  Biso   1.000  C
  H73      1.0000 0.01850  0.35980  0.81260  Biso   1.000  H
  C125     1.0000 0.89060  0.36420  0.19770  Biso   1.000  C
  H74      1.0000 0.87300  0.43790  0.20070  Biso   1.000  H
  C126     1.0000 0.94060  0.98200  0.92870  Biso   1.000  C
  H75      1.0000 0.92320  0.90820  0.91450  Biso   1.000  H
  C127     1.0000 0.94980  0.25910  0.12000  Biso   1.000  C
  C128     1.0000 0.79120  0.80450  0.91010  Biso   1.000  C
  C129     1.0000 0.08410  0.50940  0.01710  Biso   1.000  C
  H76      1.0000 0.10480  0.58000  0.02590  Biso   1.000  H
  C130     1.0000 0.89900  0.25630  0.22640  Biso   1.000  C
  C131     1.0000 0.10270  0.68020  0.12920  Biso   1.000  C
  H77      1.0000 0.07480  0.71290  0.12530  Biso   1.000  H
  C132     1.0000 0.06150  0.44400  0.04260  Biso   1.000  C
  C133     1.0000 0.93600  0.05780  0.96460  Biso   1.000  C
  C134     1.0000 0.99200  0.30720  0.12510  Biso   1.000  C
  C135     1.0000 0.04700  0.40010  0.10980  Biso   1.000  C
  C136     1.0000 0.83440  0.01260  0.91780  Biso   1.000  C
  H78      1.0000 0.83910  0.10040  0.90770  Biso   1.000  H
  C137     1.0000 0.01940  0.31580  0.87320  Biso   1.000  C
  H79      1.0000 0.99640  0.37480  0.87230  Biso   1.000  H
  C138     1.0000 0.07470  0.16760  0.90930  Biso   1.000  C
  H80      1.0000 0.09130  0.12300  0.93440  Biso   1.000  H
  C139     1.0000 0.97500  0.03730  0.91910  Biso   1.000  C
  H81      1.0000 0.98490  0.01010  0.89650  Biso   1.000  H
  C140     1.0000 0.90030  0.11780  0.01610  Biso   1.000  C
  C141     1.0000 0.12360  0.20660  0.76070  Biso   1.000  C
  H82      1.0000 0.14740  0.19000  0.75150  Biso   1.000  H
  C142     1.0000 0.02120  0.35610  0.16480  Biso   1.000  C
  H83      1.0000 0.01750  0.35040  0.19190  Biso   1.000  H
  C143     1.0000 0.05560  0.41300  0.15520  Biso   1.000  C
  H84      1.0000 0.08000  0.45280  0.17470  Biso   1.000  H
  C144     1.0000 0.90790  0.36530  0.16420  Biso   1.000  C
  H85      1.0000 0.90130  0.43950  0.14470  Biso   1.000  H
  C145     1.0000 0.07030  0.45090  0.97790  Biso   1.000  C
  H86      1.0000 0.07910  0.47480  0.95430  Biso   1.000  H
  C146     1.0000 0.14980  0.51230  0.11630  Biso   1.000  C
  H87      1.0000 0.15470  0.42830  0.10410  Biso   1.000  H
  C147     1.0000 0.12270  0.20460  0.80110  Biso   1.000  C
  H88      1.0000 0.14630  0.18920  0.82550  Biso   1.000  H
  N34      1.0000 0.88720  0.14490  0.29130  Biso   1.000  N
  N35      1.0000 0.20610  0.89550  0.21060  Biso   1.000  N
  C148     1.0000 0.87840  0.16890  0.07390  Biso   1.000  C
  H89      1.0000 0.86240  0.17820  0.09280  Biso   1.000  H
  C149     1.0000 0.92620  0.14840  0.22180  Biso   1.000  C
  H90      1.0000 0.93260  0.07440  0.24140  Biso   1.000  H
  C150     1.0000 0.92230  0.21250  0.08130  Biso   1.000  C
  C151     1.0000 0.24370  0.95440  0.22750  Biso   1.000  C
  H91      1.0000 0.24860  0.02700  0.24750  Biso   1.000  H
  C152     1.0000 0.08910  0.15770  0.87350  Biso   1.000  C
  H92      1.0000 0.11270  0.10140  0.87430  Biso   1.000  H
  C153     1.0000 0.86470  0.11110  0.03370  Biso   1.000  C
  H93      1.0000 0.83740  0.07400  0.02000  Biso   1.000  H
  C154     1.0000 0.27420  0.90040  0.21340  Biso   1.000  C
  H94      1.0000 0.30310  0.92760  0.22090  Biso   1.000  H
  C155     1.0000 0.25460  0.79760  0.18570  Biso   1.000  C
  H95      1.0000 0.26750  0.73830  0.17060  Biso   1.000  H
  C156     1.0000 0.79850  0.93130  0.89460  Biso   1.000  C
  H96      1.0000 0.77980  0.96450  0.86870  Biso   1.000  H
  C157     1.0000 0.84920  0.34050  0.25990  Biso   1.000  C
  H97      1.0000 0.84030  0.41800  0.24200  Biso   1.000  H
  C158     1.0000 0.18520  0.59140  0.14030  Biso   1.000  C
  H98      1.0000 0.21330  0.56170  0.14340  Biso   1.000  H
  C159     1.0000 0.85520  0.83330  0.97030  Biso   1.000  C
  H99      1.0000 0.87440  0.79890  0.99580  Biso   1.000  H
  C160     1.0000 0.85700  0.18220  0.31200  Biso   1.000  C
  H100     1.0000 0.85220  0.13550  0.33510  Biso   1.000  H
  C161     1.0000 0.81890  0.75000  0.94750  Biso   1.000  C
  H101     1.0000 0.81410  0.66220  0.95760  Biso   1.000  H
  C162     1.0000 0.83580  0.30110  0.29180  Biso   1.000  C
  H102     1.0000 0.81450  0.34770  0.30000  Biso   1.000  H
  C163     1.0000 0.94390  0.15100  0.18800  Biso   1.000  C
  H103     1.0000 0.96210  0.07900  0.18500  Biso   1.000  H
  C164     1.0000 0.70490  0.62240  0.83350  Biso   1.000  C
  H104     1.0000 0.68590  0.60070  0.80640  Biso   1.000  H
  C165     1.0000 0.13670  0.75890  0.15350  Biso   1.000  C
  H105     1.0000 0.13180  0.84220  0.16610  Biso   1.000  H
  N36      1.0000 0.05600  0.25090  0.76040  Biso   1.000  N
  C166     1.0000 0.73480  0.72530  0.84380  Biso   1.000  C
  H106     1.0000 0.74010  0.79090  0.82500  Biso   1.000  H
  C167     1.0000 0.08160  0.23870  0.73510  Biso   1.000  C
  H107     1.0000 0.07270  0.25000  0.70530  Biso   1.000  H
  C168     1.0000 0.70850  0.55730  0.87150  Biso   1.000  C
  H108     1.0000 0.69060  0.48400  0.87410  Biso   1.000  H
  Co4      1.0000 0.48631  0.75395  0.53371  Biso   1.000  Co
  N37      1.0000 0.46952  0.65490  0.47907  Biso   1.000  N
  N38      1.0000 0.43450  0.68520  0.54494  Biso   1.000  N
  N39      1.0000 0.53247  0.84730  0.51863  Biso   1.000  N
  N40      1.0000 0.50804  0.82910  0.59193  Biso   1.000  N
  N41      1.0000 0.24150  0.11080  0.40590  Biso   1.000  N
  C169     1.0000 0.53830  0.73730  0.41100  Biso   1.000  C
  C170     1.0000 0.56810  0.73130  0.33740  Biso   1.000  C
  C171     1.0000 0.52310  0.74210  0.44740  Biso   1.000  C
  C172     1.0000 0.43410  0.76270  0.65890  Biso   1.000  C
  C173     1.0000 0.40060  0.55020  0.47910  Biso   1.000  C
  C174     1.0000 0.49290  0.64390  0.44960  Biso   1.000  C
  N42      1.0000 0.25530  0.21590  0.38590  Biso   1.000  N
  N43      1.0000 0.37910  0.74230  0.75890  Biso   1.000  N
  N44      1.0000 0.71300  0.29770  0.68420  Biso   1.000  N
  C175     1.0000 0.36270  0.46080  0.45590  Biso   1.000  C
  C176     1.0000 0.57050  0.96470  0.58700  Biso   1.000  C
  C177     1.0000 0.53950  0.84460  0.47900  Biso   1.000  C
  C178     1.0000 0.60780  0.05430  0.61020  Biso   1.000  C
  N45      1.0000 0.58250  0.72810  0.30080  Biso   1.000  N
  C179     1.0000 0.67800  0.21450  0.65920  Biso   1.000  C
  C180     1.0000 0.53330  0.80960  0.33720  Biso   1.000  C
  H109     1.0000 0.51850  0.85980  0.31260  Biso   1.000  H
  C181     1.0000 0.39060  0.86420  0.69770  Biso   1.000  C
  H110     1.0000 0.37300  0.93790  0.70070  Biso   1.000  H
  C182     1.0000 0.44060  0.48200  0.42870  Biso   1.000  C
  H111     1.0000 0.42320  0.40820  0.41450  Biso   1.000  H
  C183     1.0000 0.44980  0.75910  0.62000  Biso   1.000  C
  C184     1.0000 0.29120  0.30450  0.41010  Biso   1.000  C
  C185     1.0000 0.58410  0.00940  0.51710  Biso   1.000  C
  H112     1.0000 0.60480  0.08000  0.52590  Biso   1.000  H
  C186     1.0000 0.39900  0.75630  0.72640  Biso   1.000  C
  C187     1.0000 0.60270  0.18020  0.62920  Biso   1.000  C
  H113     1.0000 0.57480  0.21290  0.62530  Biso   1.000  H
  C188     1.0000 0.56150  0.94400  0.54260  Biso   1.000  C
  C189     1.0000 0.43600  0.55780  0.46460  Biso   1.000  C
  C190     1.0000 0.49200  0.80720  0.62510  Biso   1.000  C
  C191     1.0000 0.54700  0.90010  0.60980  Biso   1.000  C
  C192     1.0000 0.33440  0.51260  0.41780  Biso   1.000  C
  H114     1.0000 0.33910  0.60040  0.40770  Biso   1.000  H
  C193     1.0000 0.51940  0.81580  0.37320  Biso   1.000  C
  H115     1.0000 0.49640  0.87480  0.37230  Biso   1.000  H
  C194     1.0000 0.57470  0.66760  0.40930  Biso   1.000  C
  H116     1.0000 0.59130  0.62300  0.43440  Biso   1.000  H
  C195     1.0000 0.47500  0.53730  0.41910  Biso   1.000  C
  H117     1.0000 0.48490  0.51010  0.39650  Biso   1.000  H
  C196     1.0000 0.40030  0.61780  0.51610  Biso   1.000  C
  C197     1.0000 0.62360  0.70660  0.26070  Biso   1.000  C
  H118     1.0000 0.64740  0.69000  0.25150  Biso   1.000  H
  C198     1.0000 0.52120  0.85610  0.66480  Biso   1.000  C
  H119     1.0000 0.51750  0.85040  0.69190  Biso   1.000  H
  C199     1.0000 0.55560  0.91300  0.65520  Biso   1.000  C
  H120     1.0000 0.58000  0.95280  0.67470  Biso   1.000  H
  C200     1.0000 0.40790  0.86530  0.66420  Biso   1.000  C
  H121     1.0000 0.40130  0.93950  0.64470  Biso   1.000  H
  C201     1.0000 0.57030  0.95090  0.47790  Biso   1.000  C
  H122     1.0000 0.57910  0.97480  0.45430  Biso   1.000  H
  C202     1.0000 0.64980  0.01230  0.61630  Biso   1.000  C
  H123     1.0000 0.65470  0.92830  0.60410  Biso   1.000  H
  C203     1.0000 0.62270  0.70460  0.30110  Biso   1.000  C
  H124     1.0000 0.64630  0.68920  0.32550  Biso   1.000  H
  N46      1.0000 0.38720  0.64490  0.79130  Biso   1.000  N
  N47      1.0000 0.70610  0.39550  0.71060  Biso   1.000  N
  C204     1.0000 0.37840  0.66890  0.57390  Biso   1.000  C
  H125     1.0000 0.36240  0.67820  0.59280  Biso   1.000  H
  C205     1.0000 0.42620  0.64840  0.72180  Biso   1.000  C
  H126     1.0000 0.43260  0.57440  0.74140  Biso   1.000  H
  C206     1.0000 0.42230  0.71250  0.58130  Biso   1.000  C
  C207     1.0000 0.74370  0.45440  0.72750  Biso   1.000  C
  H127     1.0000 0.74860  0.52700  0.74750  Biso   1.000  H
  C208     1.0000 0.58910  0.65770  0.37350  Biso   1.000  C
  H128     1.0000 0.61270  0.60140  0.37430  Biso   1.000  H
  C209     1.0000 0.36470  0.61110  0.53370  Biso   1.000  C
  H129     1.0000 0.33740  0.57400  0.52000  Biso   1.000  H
  C210     1.0000 0.77420  0.40040  0.71340  Biso   1.000  C
  H130     1.0000 0.80310  0.42760  0.72090  Biso   1.000  H
  C211     1.0000 0.75460  0.29760  0.68570  Biso   1.000  C
  H131     1.0000 0.76750  0.23830  0.67060  Biso   1.000  H
  C212     1.0000 0.29850  0.43130  0.39460  Biso   1.000  C
  H132     1.0000 0.27980  0.46450  0.36870  Biso   1.000  H
  C213     1.0000 0.34920  0.84050  0.75990  Biso   1.000  C
  H133     1.0000 0.34030  0.91800  0.74200  Biso   1.000  H
  C214     1.0000 0.68520  0.09140  0.64030  Biso   1.000  C
  H134     1.0000 0.71330  0.06170  0.64340  Biso   1.000  H
  C215     1.0000 0.35520  0.33330  0.47030  Biso   1.000  C
  H135     1.0000 0.37440  0.29890  0.49580  Biso   1.000  H
  C216     1.0000 0.35700  0.68220  0.81200  Biso   1.000  C
  H136     1.0000 0.35220  0.63550  0.83510  Biso   1.000  H
  C217     1.0000 0.31890  0.25000  0.44750  Biso   1.000  C
  H137     1.0000 0.31410  0.16220  0.45760  Biso   1.000  H
  C218     1.0000 0.33580  0.80110  0.79180  Biso   1.000  C
  H138     1.0000 0.31450  0.84770  0.80000  Biso   1.000  H
  C219     1.0000 0.44390  0.65100  0.68800  Biso   1.000  C
  H139     1.0000 0.46210  0.57900  0.68500  Biso   1.000  H
  C220     1.0000 0.20490  0.12240  0.33350  Biso   1.000  C
  H140     1.0000 0.18590  0.10070  0.30640  Biso   1.000  H
  C221     1.0000 0.63670  0.25890  0.65350  Biso   1.000  C
  H141     1.0000 0.63180  0.34220  0.66610  Biso   1.000  H
  N48      1.0000 0.55600  0.75090  0.26040  Biso   1.000  N
  C222     1.0000 0.23480  0.22530  0.34380  Biso   1.000  C
  H142     1.0000 0.24010  0.29090  0.32500  Biso   1.000  H
  C223     1.0000 0.58160  0.73870  0.23510  Biso   1.000  C
  H143     1.0000 0.57270  0.75000  0.20530  Biso   1.000  H
  C224     1.0000 0.20850  0.05730  0.37150  Biso   1.000  C
  H144     1.0000 0.19060  0.98400  0.37410  Biso   1.000  H
  Co5      1.0000 0.98631  0.74605  0.53371  Biso   1.000  Co
  N49      1.0000 0.96952  0.84510  0.47907  Biso   1.000  N
  N50      1.0000 0.93450  0.81480  0.54494  Biso   1.000  N
  N51      1.0000 0.03247  0.65270  0.51863  Biso   1.000  N
  N52      1.0000 0.00804  0.67090  0.59193  Biso   1.000  N
  N53      1.0000 0.74150  0.38920  0.40590  Biso   1.000  N
  C225     1.0000 0.03830  0.76270  0.41100  Biso   1.000  C
  C226     1.0000 0.06810  0.76870  0.33740  Biso   1.000  C
  C227     1.0000 0.02310  0.75790  0.44740  Biso   1.000  C
  C228     1.0000 0.93410  0.73730  0.65890  Biso   1.000  C
  C229     1.0000 0.90060  0.94980  0.47910  Biso   1.000  C
  C230     1.0000 0.99290  0.85610  0.44960  Biso   1.000  C
  N54      1.0000 0.75530  0.28410  0.38590  Biso   1.000  N
  N55      1.0000 0.87910  0.75770  0.75890  Biso   1.000  N
  N56      1.0000 0.21300  0.20230  0.68420  Biso   1.000  N
  C231     1.0000 0.86270  0.03920  0.45590  Biso   1.000  C
  C232     1.0000 0.07050  0.53530  0.58700  Biso   1.000  C
  C233     1.0000 0.03950  0.65540  0.47900  Biso   1.000  C
  C234     1.0000 0.10780  0.44570  0.61020  Biso   1.000  C
  N57      1.0000 0.08250  0.77190  0.30080  Biso   1.000  N
  C235     1.0000 0.17800  0.28550  0.65920  Biso   1.000  C
  C236     1.0000 0.03330  0.69040  0.33720  Biso   1.000  C
  H145     1.0000 0.01850  0.64020  0.31260  Biso   1.000  H
  C237     1.0000 0.89060  0.63580  0.69770  Biso   1.000  C
  H146     1.0000 0.87300  0.56210  0.70070  Biso   1.000  H
  C238     1.0000 0.94060  0.01800  0.42870  Biso   1.000  C
  H147     1.0000 0.92320  0.09180  0.41450  Biso   1.000  H
  C239     1.0000 0.94980  0.74090  0.62000  Biso   1.000  C
  C240     1.0000 0.79120  0.19550  0.41010  Biso   1.000  C
  C241     1.0000 0.08410  0.49060  0.51710  Biso   1.000  C
  H148     1.0000 0.10480  0.42000  0.52590  Biso   1.000  H
  C242     1.0000 0.89900  0.74370  0.72640  Biso   1.000  C
  C243     1.0000 0.10270  0.31980  0.62920  Biso   1.000  C
  H149     1.0000 0.07480  0.28710  0.62530  Biso   1.000  H
  C244     1.0000 0.06150  0.55600  0.54260  Biso   1.000  C
  C245     1.0000 0.93600  0.94220  0.46460  Biso   1.000  C
  C246     1.0000 0.99200  0.69280  0.62510  Biso   1.000  C
  C247     1.0000 0.04700  0.59990  0.60980  Biso   1.000  C
  C248     1.0000 0.83440  0.98740  0.41780  Biso   1.000  C
  H150     1.0000 0.83910  0.89960  0.40770  Biso   1.000  H
  C249     1.0000 0.01940  0.68420  0.37320  Biso   1.000  C
  H151     1.0000 0.99640  0.62520  0.37230  Biso   1.000  H
  C250     1.0000 0.07470  0.83240  0.40930  Biso   1.000  C
  H152     1.0000 0.09130  0.87700  0.43440  Biso   1.000  H
  C251     1.0000 0.97500  0.96270  0.41910  Biso   1.000  C
  H153     1.0000 0.98490  0.98990  0.39650  Biso   1.000  H
  C252     1.0000 0.90030  0.88220  0.51610  Biso   1.000  C
  C253     1.0000 0.12360  0.79340  0.26070  Biso   1.000  C
  H154     1.0000 0.14740  0.81000  0.25150  Biso   1.000  H
  C254     1.0000 0.02120  0.64390  0.66480  Biso   1.000  C
  H155     1.0000 0.01750  0.64960  0.69190  Biso   1.000  H
  C255     1.0000 0.05560  0.58700  0.65520  Biso   1.000  C
  H156     1.0000 0.08000  0.54720  0.67470  Biso   1.000  H
  C256     1.0000 0.90790  0.63470  0.66420  Biso   1.000  C
  H157     1.0000 0.90130  0.56050  0.64470  Biso   1.000  H
  C257     1.0000 0.07030  0.54910  0.47790  Biso   1.000  C
  H158     1.0000 0.07910  0.52520  0.45430  Biso   1.000  H
  C258     1.0000 0.14980  0.48770  0.61630  Biso   1.000  C
  H159     1.0000 0.15470  0.57170  0.60410  Biso   1.000  H
  C259     1.0000 0.12270  0.79540  0.30110  Biso   1.000  C
  H160     1.0000 0.14630  0.81080  0.32550  Biso   1.000  H
  N58      1.0000 0.88720  0.85510  0.79130  Biso   1.000  N
  N59      1.0000 0.20610  0.10450  0.71060  Biso   1.000  N
  C260     1.0000 0.87840  0.83110  0.57390  Biso   1.000  C
  H161     1.0000 0.86240  0.82180  0.59280  Biso   1.000  H
  C261     1.0000 0.92620  0.85160  0.72180  Biso   1.000  C
  H162     1.0000 0.93260  0.92560  0.74140  Biso   1.000  H
  C262     1.0000 0.92230  0.78750  0.58130  Biso   1.000  C
  C263     1.0000 0.24370  0.04560  0.72750  Biso   1.000  C
  H163     1.0000 0.24860  0.97300  0.74750  Biso   1.000  H
  C264     1.0000 0.08910  0.84230  0.37350  Biso   1.000  C
  H164     1.0000 0.11270  0.89860  0.37430  Biso   1.000  H
  C265     1.0000 0.86470  0.88890  0.53370  Biso   1.000  C
  H165     1.0000 0.83740  0.92600  0.52000  Biso   1.000  H
  C266     1.0000 0.27420  0.09960  0.71340  Biso   1.000  C
  H166     1.0000 0.30310  0.07240  0.72090  Biso   1.000  H
  C267     1.0000 0.25460  0.20240  0.68570  Biso   1.000  C
  H167     1.0000 0.26750  0.26170  0.67060  Biso   1.000  H
  C268     1.0000 0.79850  0.06870  0.39460  Biso   1.000  C
  H168     1.0000 0.77980  0.03550  0.36870  Biso   1.000  H
  C269     1.0000 0.84920  0.65950  0.75990  Biso   1.000  C
  H169     1.0000 0.84030  0.58200  0.74200  Biso   1.000  H
  C270     1.0000 0.18520  0.40860  0.64030  Biso   1.000  C
  H170     1.0000 0.21330  0.43830  0.64340  Biso   1.000  H
  C271     1.0000 0.85520  0.16670  0.47030  Biso   1.000  C
  H171     1.0000 0.87440  0.20110  0.49580  Biso   1.000  H
  C272     1.0000 0.85700  0.81780  0.81200  Biso   1.000  C
  H172     1.0000 0.85220  0.86450  0.83510  Biso   1.000  H
  C273     1.0000 0.81890  0.25000  0.44750  Biso   1.000  C
  H173     1.0000 0.81410  0.33780  0.45760  Biso   1.000  H
  C274     1.0000 0.83580  0.69890  0.79180  Biso   1.000  C
  H174     1.0000 0.81450  0.65230  0.80000  Biso   1.000  H
  C275     1.0000 0.94390  0.84900  0.68800  Biso   1.000  C
  H175     1.0000 0.96210  0.92100  0.68500  Biso   1.000  H
  C276     1.0000 0.70490  0.37760  0.33350  Biso   1.000  C
  H176     1.0000 0.68590  0.39930  0.30640  Biso   1.000  H
  C277     1.0000 0.13670  0.24110  0.65350  Biso   1.000  C
  H177     1.0000 0.13180  0.15780  0.66610  Biso   1.000  H
  N60      1.0000 0.05600  0.74910  0.26040  Biso   1.000  N
  C278     1.0000 0.73480  0.27470  0.34380  Biso   1.000  C
  H178     1.0000 0.74010  0.20910  0.32500  Biso   1.000  H
  C279     1.0000 0.08160  0.76130  0.23510  Biso   1.000  C
  H179     1.0000 0.07270  0.75000  0.20530  Biso   1.000  H
  C280     1.0000 0.70850  0.44270  0.37150  Biso   1.000  C
  H180     1.0000 0.69060  0.51600  0.37410  Biso   1.000  H
  Co6      1.0000 0.48631  0.24605  0.03371  Biso   1.000  Co
  N61      1.0000 0.46952  0.34510  0.97907  Biso   1.000  N
  N62      1.0000 0.43450  0.31480  0.04494  Biso   1.000  N
  N63      1.0000 0.53247  0.15270  0.01863  Biso   1.000  N
  N64      1.0000 0.50804  0.17090  0.09193  Biso   1.000  N
  N65      1.0000 0.24150  0.88920  0.90590  Biso   1.000  N
  C281     1.0000 0.53830  0.26270  0.91100  Biso   1.000  C
  C282     1.0000 0.56810  0.26870  0.83740  Biso   1.000  C
  C283     1.0000 0.52310  0.25790  0.94740  Biso   1.000  C
  C284     1.0000 0.43410  0.23730  0.15890  Biso   1.000  C
  C285     1.0000 0.40060  0.44980  0.97910  Biso   1.000  C
  C286     1.0000 0.49290  0.35610  0.94960  Biso   1.000  C
  N66      1.0000 0.25530  0.78410  0.88590  Biso   1.000  N
  N67      1.0000 0.37910  0.25770  0.25890  Biso   1.000  N
  N68      1.0000 0.71300  0.70230  0.18420  Biso   1.000  N
  C287     1.0000 0.36270  0.53920  0.95590  Biso   1.000  C
  C288     1.0000 0.57050  0.03530  0.08700  Biso   1.000  C
  C289     1.0000 0.53950  0.15540  0.97900  Biso   1.000  C
  C290     1.0000 0.60780  0.94570  0.11020  Biso   1.000  C
  N69      1.0000 0.58250  0.27190  0.80080  Biso   1.000  N
  C291     1.0000 0.67800  0.78550  0.15920  Biso   1.000  C
  C292     1.0000 0.53330  0.19040  0.83720  Biso   1.000  C
  H181     1.0000 0.51850  0.14020  0.81260  Biso   1.000  H
  C293     1.0000 0.39060  0.13580  0.19770  Biso   1.000  C
  H182     1.0000 0.37300  0.06210  0.20070  Biso   1.000  H
  C294     1.0000 0.44060  0.51800  0.92870  Biso   1.000  C
  H183     1.0000 0.42320  0.59180  0.91450  Biso   1.000  H
  C295     1.0000 0.44980  0.24090  0.12000  Biso   1.000  C
  C296     1.0000 0.29120  0.69550  0.91010  Biso   1.000  C
  C297     1.0000 0.58410  0.99060  0.01710  Biso   1.000  C
  H184     1.0000 0.60480  0.92000  0.02590  Biso   1.000  H
  C298     1.0000 0.39900  0.24370  0.22640  Biso   1.000  C
  C299     1.0000 0.60270  0.81980  0.12920  Biso   1.000  C
  H185     1.0000 0.57480  0.78710  0.12530  Biso   1.000  H
  C300     1.0000 0.56150  0.05600  0.04260  Biso   1.000  C
  C301     1.0000 0.43600  0.44220  0.96460  Biso   1.000  C
  C302     1.0000 0.49200  0.19280  0.12510  Biso   1.000  C
  C303     1.0000 0.54700  0.09990  0.10980  Biso   1.000  C
  C304     1.0000 0.33440  0.48740  0.91780  Biso   1.000  C
  H186     1.0000 0.33910  0.39960  0.90770  Biso   1.000  H
  C305     1.0000 0.51940  0.18420  0.87320  Biso   1.000  C
  H187     1.0000 0.49640  0.12520  0.87230  Biso   1.000  H
  C306     1.0000 0.57470  0.33240  0.90930  Biso   1.000  C
  H188     1.0000 0.59130  0.37700  0.93440  Biso   1.000  H
  C307     1.0000 0.47500  0.46270  0.91910  Biso   1.000  C
  H189     1.0000 0.48490  0.48990  0.89650  Biso   1.000  H
  C308     1.0000 0.40030  0.38220  0.01610  Biso   1.000  C
  C309     1.0000 0.62360  0.29340  0.76070  Biso   1.000  C
  H190     1.0000 0.64740  0.31000  0.75150  Biso   1.000  H
  C310     1.0000 0.52120  0.14390  0.16480  Biso   1.000  C
  H191     1.0000 0.51750  0.14960  0.19190  Biso   1.000  H
  C311     1.0000 0.55560  0.08700  0.15520  Biso   1.000  C
  H192     1.0000 0.58000  0.04720  0.17470  Biso   1.000  H
  C312     1.0000 0.40790  0.13470  0.16420  Biso   1.000  C
  H193     1.0000 0.40130  0.06050  0.14470  Biso   1.000  H
  C313     1.0000 0.57030  0.04910  0.97790  Biso   1.000  C
  H194     1.0000 0.57910  0.02520  0.95430  Biso   1.000  H
  C314     1.0000 0.64980  0.98770  0.11630  Biso   1.000  C
  H195     1.0000 0.65470  0.07170  0.10410  Biso   1.000  H
  C315     1.0000 0.62270  0.29540  0.80110  Biso   1.000  C
  H196     1.0000 0.64630  0.31080  0.82550  Biso   1.000  H
  N70      1.0000 0.38720  0.35510  0.29130  Biso   1.000  N
  N71      1.0000 0.70610  0.60450  0.21060  Biso   1.000  N
  C316     1.0000 0.37840  0.33110  0.07390  Biso   1.000  C
  H197     1.0000 0.36240  0.32180  0.09280  Biso   1.000  H
  C317     1.0000 0.42620  0.35160  0.22180  Biso   1.000  C
  H198     1.0000 0.43260  0.42560  0.24140  Biso   1.000  H
  C318     1.0000 0.42230  0.28750  0.08130  Biso   1.000  C
  C319     1.0000 0.74370  0.54560  0.22750  Biso   1.000  C
  H199     1.0000 0.74860  0.47300  0.24750  Biso   1.000  H
  C320     1.0000 0.58910  0.34230  0.87350  Biso   1.000  C
  H200     1.0000 0.61270  0.39860  0.87430  Biso   1.000  H
  C321     1.0000 0.36470  0.38890  0.03370  Biso   1.000  C
  H201     1.0000 0.33740  0.42600  0.02000  Biso   1.000  H
  C322     1.0000 0.77420  0.59960  0.21340  Biso   1.000  C
  H202     1.0000 0.80310  0.57240  0.22090  Biso   1.000  H
  C323     1.0000 0.75460  0.70240  0.18570  Biso   1.000  C
  H203     1.0000 0.76750  0.76170  0.17060  Biso   1.000  H
  C324     1.0000 0.29850  0.56870  0.89460  Biso   1.000  C
  H204     1.0000 0.27980  0.53550  0.86870  Biso   1.000  H
  C325     1.0000 0.34920  0.15950  0.25990  Biso   1.000  C
  H205     1.0000 0.34030  0.08200  0.24200  Biso   1.000  H
  C326     1.0000 0.68520  0.90860  0.14030  Biso   1.000  C
  H206     1.0000 0.71330  0.93830  0.14340  Biso   1.000  H
  C327     1.0000 0.35520  0.66670  0.97030  Biso   1.000  C
  H207     1.0000 0.37440  0.70110  0.99580  Biso   1.000  H
  C328     1.0000 0.35700  0.31780  0.31200  Biso   1.000  C
  H208     1.0000 0.35220  0.36450  0.33510  Biso   1.000  H
  C329     1.0000 0.31890  0.75000  0.94750  Biso   1.000  C
  H209     1.0000 0.31410  0.83780  0.95760  Biso   1.000  H
  C330     1.0000 0.33580  0.19890  0.29180  Biso   1.000  C
  H210     1.0000 0.31450  0.15230  0.30000  Biso   1.000  H
  C331     1.0000 0.44390  0.34900  0.18800  Biso   1.000  C
  H211     1.0000 0.46210  0.42100  0.18500  Biso   1.000  H
  C332     1.0000 0.20490  0.87760  0.83350  Biso   1.000  C
  H212     1.0000 0.18590  0.89930  0.80640  Biso   1.000  H
  C333     1.0000 0.63670  0.74110  0.15350  Biso   1.000  C
  H213     1.0000 0.63180  0.65780  0.16610  Biso   1.000  H
  N72      1.0000 0.55600  0.24910  0.76040  Biso   1.000  N
  C334     1.0000 0.23480  0.77470  0.84380  Biso   1.000  C
  H214     1.0000 0.24010  0.70910  0.82500  Biso   1.000  H
  C335     1.0000 0.58160  0.26130  0.73510  Biso   1.000  C
  H215     1.0000 0.57270  0.25000  0.70530  Biso   1.000  H
  C336     1.0000 0.20850  0.94270  0.87150  Biso   1.000  C
  H216     1.0000 0.19060  0.01600  0.87410  Biso   1.000  H
  Co7      1.0000 0.01369  0.74605  0.96629  Biso   1.000  Co
  N73      1.0000 0.03048  0.84510  0.02093  Biso   1.000  N
  N74      1.0000 0.06550  0.81480  0.95506  Biso   1.000  N
  N75      1.0000 0.96753  0.65270  0.98137  Biso   1.000  N
  N76      1.0000 0.99196  0.67090  0.90807  Biso   1.000  N
  N77      1.0000 0.25850  0.38920  0.09410  Biso   1.000  N
  C337     1.0000 0.96170  0.76270  0.08900  Biso   1.000  C
  C338     1.0000 0.93190  0.76870  0.16260  Biso   1.000  C
  C339     1.0000 0.97690  0.75790  0.05260  Biso   1.000  C
  C340     1.0000 0.06590  0.73730  0.84110  Biso   1.000  C
  C341     1.0000 0.09940  0.94980  0.02090  Biso   1.000  C
  C342     1.0000 0.00710  0.85610  0.05040  Biso   1.000  C
  N78      1.0000 0.24470  0.28410  0.11410  Biso   1.000  N
  N79      1.0000 0.12090  0.75770  0.74110  Biso   1.000  N
  N80      1.0000 0.78700  0.20230  0.81580  Biso   1.000  N
  C343     1.0000 0.13730  0.03920  0.04410  Biso   1.000  C
  C344     1.0000 0.92950  0.53530  0.91300  Biso   1.000  C
  C345     1.0000 0.96050  0.65540  0.02100  Biso   1.000  C
  C346     1.0000 0.89220  0.44570  0.88980  Biso   1.000  C
  N81      1.0000 0.91750  0.77190  0.19920  Biso   1.000  N
  C347     1.0000 0.82200  0.28550  0.84080  Biso   1.000  C
  C348     1.0000 0.96670  0.69040  0.16280  Biso   1.000  C
  H217     1.0000 0.98150  0.64020  0.18740  Biso   1.000  H
  C349     1.0000 0.10940  0.63580  0.80230  Biso   1.000  C
  H218     1.0000 0.12700  0.56210  0.79930  Biso   1.000  H
  C350     1.0000 0.05940  0.01800  0.07130  Biso   1.000  C
  H219     1.0000 0.07680  0.09180  0.08550  Biso   1.000  H
  C351     1.0000 0.05020  0.74090  0.88000  Biso   1.000  C
  C352     1.0000 0.20880  0.19550  0.08990  Biso   1.000  C
  C353     1.0000 0.91590  0.49060  0.98290  Biso   1.000  C
  H220     1.0000 0.89520  0.42000  0.97410  Biso   1.000  H
  C354     1.0000 0.10100  0.74370  0.77360  Biso   1.000  C
  C355     1.0000 0.89730  0.31980  0.87080  Biso   1.000  C
  H221     1.0000 0.92520  0.28710  0.87470  Biso   1.000  H
  C356     1.0000 0.93850  0.55600  0.95740  Biso   1.000  C
  C357     1.0000 0.06400  0.94220  0.03540  Biso   1.000  C
  C358     1.0000 0.00800  0.69280  0.87490  Biso   1.000  C
  C359     1.0000 0.95300  0.59990  0.89020  Biso   1.000  C
  C360     1.0000 0.16560  0.98740  0.08220  Biso   1.000  C
  H222     1.0000 0.16090  0.89960  0.09230  Biso   1.000  H
  C361     1.0000 0.98060  0.68420  0.12680  Biso   1.000  C
  H223     1.0000 0.00360  0.62520  0.12770  Biso   1.000  H
  C362     1.0000 0.92530  0.83240  0.09070  Biso   1.000  C
  H224     1.0000 0.90870  0.87700  0.06560  Biso   1.000  H
  C363     1.0000 0.02500  0.96270  0.08090  Biso   1.000  C
  H225     1.0000 0.01510  0.98990  0.10350  Biso   1.000  H
  C364     1.0000 0.09970  0.88220  0.98390  Biso   1.000  C
  C365     1.0000 0.87640  0.79340  0.23930  Biso   1.000  C
  H226     1.0000 0.85260  0.81000  0.24850  Biso   1.000  H
  C366     1.0000 0.97880  0.64390  0.83520  Biso   1.000  C
  H227     1.0000 0.98250  0.64960  0.80810  Biso   1.000  H
  C367     1.0000 0.94440  0.58700  0.84480  Biso   1.000  C
  H228     1.0000 0.92000  0.54720  0.82530  Biso   1.000  H
  C368     1.0000 0.09210  0.63470  0.83580  Biso   1.000  C
  H229     1.0000 0.09870  0.56050  0.85530  Biso   1.000  H
  C369     1.0000 0.92970  0.54910  0.02210  Biso   1.000  C
  H230     1.0000 0.92090  0.52520  0.04570  Biso   1.000  H
  C370     1.0000 0.85020  0.48770  0.88370  Biso   1.000  C
  H231     1.0000 0.84530  0.57170  0.89590  Biso   1.000  H
  C371     1.0000 0.87730  0.79540  0.19890  Biso   1.000  C
  H232     1.0000 0.85370  0.81080  0.17450  Biso   1.000  H
  N82      1.0000 0.11280  0.85510  0.70870  Biso   1.000  N
  N83      1.0000 0.79390  0.10450  0.78940  Biso   1.000  N
  C372     1.0000 0.12160  0.83110  0.92610  Biso   1.000  C
  H233     1.0000 0.13760  0.82180  0.90720  Biso   1.000  H
  C373     1.0000 0.07380  0.85160  0.77820  Biso   1.000  C
  H234     1.0000 0.06740  0.92560  0.75860  Biso   1.000  H
  C374     1.0000 0.07770  0.78750  0.91870  Biso   1.000  C
  C375     1.0000 0.75630  0.04560  0.77250  Biso   1.000  C
  H235     1.0000 0.75140  0.97300  0.75250  Biso   1.000  H
  C376     1.0000 0.91090  0.84230  0.12650  Biso   1.000  C
  H236     1.0000 0.88730  0.89860  0.12570  Biso   1.000  H
  C377     1.0000 0.13530  0.88890  0.96630  Biso   1.000  C
  H237     1.0000 0.16260  0.92600  0.98000  Biso   1.000  H
  C378     1.0000 0.72580  0.09960  0.78660  Biso   1.000  C
  H238     1.0000 0.69690  0.07240  0.77910  Biso   1.000  H
  C379     1.0000 0.74540  0.20240  0.81430  Biso   1.000  C
  H239     1.0000 0.73250  0.26170  0.82940  Biso   1.000  H
  C380     1.0000 0.20150  0.06870  0.10540  Biso   1.000  C
  H240     1.0000 0.22020  0.03550  0.13130  Biso   1.000  H
  C381     1.0000 0.15080  0.65950  0.74010  Biso   1.000  C
  H241     1.0000 0.15970  0.58200  0.75800  Biso   1.000  H
  C382     1.0000 0.81480  0.40860  0.85970  Biso   1.000  C
  H242     1.0000 0.78670  0.43830  0.85660  Biso   1.000  H
  C383     1.0000 0.14480  0.16670  0.02970  Biso   1.000  C
  H243     1.0000 0.12560  0.20110  0.00420  Biso   1.000  H
  C384     1.0000 0.14300  0.81780  0.68800  Biso   1.000  C
  H244     1.0000 0.14780  0.86450  0.66490  Biso   1.000  H
  C385     1.0000 0.18110  0.25000  0.05250  Biso   1.000  C
  H245     1.0000 0.18590  0.33780  0.04240  Biso   1.000  H
  C386     1.0000 0.16420  0.69890  0.70820  Biso   1.000  C
  H246     1.0000 0.18550  0.65230  0.70000  Biso   1.000  H
  C387     1.0000 0.05610  0.84900  0.81200  Biso   1.000  C
  H247     1.0000 0.03790  0.92100  0.81500  Biso   1.000  H
  C388     1.0000 0.29510  0.37760  0.16650  Biso   1.000  C
  H248     1.0000 0.31410  0.39930  0.19360  Biso   1.000  H
  C389     1.0000 0.86330  0.24110  0.84650  Biso   1.000  C
  H249     1.0000 0.86820  0.15780  0.83390  Biso   1.000  H
  N84      1.0000 0.94400  0.74910  0.23960  Biso   1.000  N
  C390     1.0000 0.26520  0.27470  0.15620  Biso   1.000  C
  H250     1.0000 0.25990  0.20910  0.17500  Biso   1.000  H
  C391     1.0000 0.91840  0.76130  0.26490  Biso   1.000  C
  H251     1.0000 0.92730  0.75000  0.29470  Biso   1.000  H
  C392     1.0000 0.29150  0.44270  0.12850  Biso   1.000  C
  H252     1.0000 0.30940  0.51600  0.12590  Biso   1.000  H
  Co8      1.0000 0.51369  0.24605  0.46629  Biso   1.000  Co
  N85      1.0000 0.53048  0.34510  0.52093  Biso   1.000  N
  N86      1.0000 0.56550  0.31480  0.45506  Biso   1.000  N
  N87      1.0000 0.46753  0.15270  0.48137  Biso   1.000  N
  N88      1.0000 0.49196  0.17090  0.40807  Biso   1.000  N
  N89      1.0000 0.75850  0.88920  0.59410  Biso   1.000  N
  C393     1.0000 0.46170  0.26270  0.58900  Biso   1.000  C
  C394     1.0000 0.43190  0.26870  0.66260  Biso   1.000  C
  C395     1.0000 0.47690  0.25790  0.55260  Biso   1.000  C
  C396     1.0000 0.56590  0.23730  0.34110  Biso   1.000  C
  C397     1.0000 0.59940  0.44980  0.52090  Biso   1.000  C
  C398     1.0000 0.50710  0.35610  0.55040  Biso   1.000  C
  N90      1.0000 0.74470  0.78410  0.61410  Biso   1.000  N
  N91      1.0000 0.62090  0.25770  0.24110  Biso   1.000  N
  N92      1.0000 0.28700  0.70230  0.31580  Biso   1.000  N
  C399     1.0000 0.63730  0.53920  0.54410  Biso   1.000  C
  C400     1.0000 0.42950  0.03530  0.41300  Biso   1.000  C
  C401     1.0000 0.46050  0.15540  0.52100  Biso   1.000  C
  C402     1.0000 0.39220  0.94570  0.38980  Biso   1.000  C
  N93      1.0000 0.41750  0.27190  0.69920  Biso   1.000  N
  C403     1.0000 0.32200  0.78550  0.34080  Biso   1.000  C
  C404     1.0000 0.46670  0.19040  0.66280  Biso   1.000  C
  H253     1.0000 0.48150  0.14020  0.68740  Biso   1.000  H
  C405     1.0000 0.60940  0.13580  0.30230  Biso   1.000  C
  H254     1.0000 0.62700  0.06210  0.29930  Biso   1.000  H
  C406     1.0000 0.55940  0.51800  0.57130  Biso   1.000  C
  H255     1.0000 0.57680  0.59180  0.58550  Biso   1.000  H
  C407     1.0000 0.55020  0.24090  0.38000  Biso   1.000  C
  C408     1.0000 0.70880  0.69550  0.58990  Biso   1.000  C
  C409     1.0000 0.41590  0.99060  0.48290  Biso   1.000  C
  H256     1.0000 0.39520  0.92000  0.47410  Biso   1.000  H
  C410     1.0000 0.60100  0.24370  0.27360  Biso   1.000  C
  C411     1.0000 0.39730  0.81980  0.37080  Biso   1.000  C
  H257     1.0000 0.42520  0.78710  0.37470  Biso   1.000  H
  C412     1.0000 0.43850  0.05600  0.45740  Biso   1.000  C
  C413     1.0000 0.56400  0.44220  0.53540  Biso   1.000  C
  C414     1.0000 0.50800  0.19280  0.37490  Biso   1.000  C
  C415     1.0000 0.45300  0.09990  0.39020  Biso   1.000  C
  C416     1.0000 0.66560  0.48740  0.58220  Biso   1.000  C
  H258     1.0000 0.66090  0.39960  0.59230  Biso   1.000  H
  C417     1.0000 0.48060  0.18420  0.62680  Biso   1.000  C
  H259     1.0000 0.50360  0.12520  0.62770  Biso   1.000  H
  C418     1.0000 0.42530  0.33240  0.59070  Biso   1.000  C
  H260     1.0000 0.40870  0.37700  0.56560  Biso   1.000  H
  C419     1.0000 0.52500  0.46270  0.58090  Biso   1.000  C
  H261     1.0000 0.51510  0.48990  0.60350  Biso   1.000  H
  C420     1.0000 0.59970  0.38220  0.48390  Biso   1.000  C
  C421     1.0000 0.37640  0.29340  0.73930  Biso   1.000  C
  H262     1.0000 0.35260  0.31000  0.74850  Biso   1.000  H
  C422     1.0000 0.47880  0.14390  0.33520  Biso   1.000  C
  H263     1.0000 0.48250  0.14960  0.30810  Biso   1.000  H
  C423     1.0000 0.44440  0.08700  0.34480  Biso   1.000  C
  H264     1.0000 0.42000  0.04720  0.32530  Biso   1.000  H
  C424     1.0000 0.59210  0.13470  0.33580  Biso   1.000  C
  H265     1.0000 0.59870  0.06050  0.35530  Biso   1.000  H
  C425     1.0000 0.42970  0.04910  0.52210  Biso   1.000  C
  H266     1.0000 0.42090  0.02520  0.54570  Biso   1.000  H
  C426     1.0000 0.35020  0.98770  0.38370  Biso   1.000  C
  H267     1.0000 0.34530  0.07170  0.39590  Biso   1.000  H
  C427     1.0000 0.37730  0.29540  0.69890  Biso   1.000  C
  H268     1.0000 0.35370  0.31080  0.67450  Biso   1.000  H
  N94      1.0000 0.61280  0.35510  0.20870  Biso   1.000  N
  N95      1.0000 0.29390  0.60450  0.28940  Biso   1.000  N
  C428     1.0000 0.62160  0.33110  0.42610  Biso   1.000  C
  H269     1.0000 0.63760  0.32180  0.40720  Biso   1.000  H
  C429     1.0000 0.57380  0.35160  0.27820  Biso   1.000  C
  H270     1.0000 0.56740  0.42560  0.25860  Biso   1.000  H
  C430     1.0000 0.57770  0.28750  0.41870  Biso   1.000  C
  C431     1.0000 0.25630  0.54560  0.27250  Biso   1.000  C
  H271     1.0000 0.25140  0.47300  0.25250  Biso   1.000  H
  C432     1.0000 0.41090  0.34230  0.62650  Biso   1.000  C
  H272     1.0000 0.38730  0.39860  0.62570  Biso   1.000  H
  C433     1.0000 0.63530  0.38890  0.46630  Biso   1.000  C
  H273     1.0000 0.66260  0.42600  0.48000  Biso   1.000  H
  C434     1.0000 0.22580  0.59960  0.28660  Biso   1.000  C
  H274     1.0000 0.19690  0.57240  0.27910  Biso   1.000  H
  C435     1.0000 0.24540  0.70240  0.31430  Biso   1.000  C
  H275     1.0000 0.23250  0.76170  0.32940  Biso   1.000  H
  C436     1.0000 0.70150  0.56870  0.60540  Biso   1.000  C
  H276     1.0000 0.72020  0.53550  0.63130  Biso   1.000  H
  C437     1.0000 0.65080  0.15950  0.24010  Biso   1.000  C
  H277     1.0000 0.65970  0.08200  0.25800  Biso   1.000  H
  C438     1.0000 0.31480  0.90860  0.35970  Biso   1.000  C
  H278     1.0000 0.28670  0.93830  0.35660  Biso   1.000  H
  C439     1.0000 0.64480  0.66670  0.52970  Biso   1.000  C
  H279     1.0000 0.62560  0.70110  0.50420  Biso   1.000  H
  C440     1.0000 0.64300  0.31780  0.18800  Biso   1.000  C
  H280     1.0000 0.64780  0.36450  0.16490  Biso   1.000  H
  C441     1.0000 0.68110  0.75000  0.55250  Biso   1.000  C
  H281     1.0000 0.68590  0.83780  0.54240  Biso   1.000  H
  C442     1.0000 0.66420  0.19890  0.20820  Biso   1.000  C
  H282     1.0000 0.68550  0.15230  0.20000  Biso   1.000  H
  C443     1.0000 0.55610  0.34900  0.31200  Biso   1.000  C
  H283     1.0000 0.53790  0.42100  0.31500  Biso   1.000  H
  C444     1.0000 0.79510  0.87760  0.66650  Biso   1.000  C
  H284     1.0000 0.81410  0.89930  0.69360  Biso   1.000  H
  C445     1.0000 0.36330  0.74110  0.34650  Biso   1.000  C
  H285     1.0000 0.36820  0.65780  0.33390  Biso   1.000  H
  N96      1.0000 0.44400  0.24910  0.73960  Biso   1.000  N
  C446     1.0000 0.76520  0.77470  0.65620  Biso   1.000  C
  H286     1.0000 0.75990  0.70910  0.67500  Biso   1.000  H
  C447     1.0000 0.41840  0.26130  0.76490  Biso   1.000  C
  H287     1.0000 0.42730  0.25000  0.79470  Biso   1.000  H
  C448     1.0000 0.79150  0.94270  0.62850  Biso   1.000  C
  H288     1.0000 0.80940  0.01600  0.62590  Biso   1.000  H
