data_image0
_cell_length_a       25.5169
_cell_length_b       25.5169
_cell_length_c       33.729
_cell_angle_alpha    90
_cell_angle_beta     90
_cell_angle_gamma    90

_symmetry_space_group_name_H-M    "P 1"
_symmetry_int_tables_number       1

loop_
  _symmetry_equiv_pos_as_xyz
  'x, y, z'

loop_
  _atom_site_label
  _atom_site_occupancy
  _atom_site_fract_x
  _atom_site_fract_y
  _atom_site_fract_z
  _atom_site_thermal_displace_type
  _atom_site_B_iso_or_equiv
  _atom_site_type_symbol
  Cu1      1.0000 0.84217  0.75178  0.78115  Biso   1.000  Cu
  Cu2      1.0000 0.88076  0.81267  0.83704  Biso   1.000  Cu
  O1       1.0000 0.13941  0.60758  0.95914  Biso   1.000  O
  O2       1.0000 0.03273  0.58143  0.95891  Biso   1.000  O
  O3       1.0000 0.77841  0.75601  0.81464  Biso   1.000  O
  O4       1.0000 0.90203  0.74494  0.86047  Biso   1.000  O
  O5       1.0000 0.85276  0.87103  0.80564  Biso   1.000  O
  O6       1.0000 0.11900  0.69270  0.95993  Biso   1.000  O
  O7       1.0000 0.86573  0.69332  0.81383  Biso   1.000  O
  C1       1.0000 0.77580  0.78020  0.84729  Biso   1.000  C
  O8       1.0000 0.82362  0.81909  0.75675  Biso   1.000  O
  O9       1.0000 0.81238  0.80563  0.86331  Biso   1.000  O
  O10      1.0000 0.59910  0.70620  0.86855  Biso   1.000  O
  O11      1.0000 0.10940  0.50550  0.00420  Biso   1.000  O
  C2       1.0000 0.82960  0.86300  0.77320  Biso   1.000  C
  O12      1.0000 0.89470  0.51378  0.85986  Biso   1.000  O
  C3       1.0000 0.78540  0.05290  0.77172  Biso   1.000  C
  C4       1.0000 0.00780  0.62200  0.94727  Biso   1.000  C
  C5       1.0000 0.89070  0.70130  0.84586  Biso   1.000  C
  C6       1.0000 0.65440  0.85520  0.94787  Biso   1.000  C
  C7       1.0000 0.72420  0.77870  0.86833  Biso   1.000  C
  C8       1.0000 0.96660  0.61460  0.91613  Biso   1.000  C
  C9       1.0000 0.90990  0.65370  0.86752  Biso   1.000  C
  C10      1.0000 0.78680  0.00100  0.75121  Biso   1.000  C
  C11      1.0000 0.80840  0.90960  0.75193  Biso   1.000  C
  C12      1.0000 0.94620  0.65890  0.89792  Biso   1.000  C
  H1       1.0000 0.95690  0.69200  0.90610  Biso   1.000  H
  C13      1.0000 0.91220  0.46680  0.87730  Biso   1.000  C
  H2       1.0000 0.90270  0.46590  0.90510  Biso   1.000  H
  H3       1.0000 0.95010  0.46420  0.87530  Biso   1.000  H
  C14      1.0000 0.66520  0.81420  0.91698  Biso   1.000  C
  C15      1.0000 0.91370  0.56030  0.87414  Biso   1.000  C
  C16      1.0000 0.76340  0.99500  0.71430  Biso   1.000  C
  H4       1.0000 0.74810  0.02370  0.70180  Biso   1.000  H
  C17      1.0000 0.76260  0.94620  0.69600  Biso   1.000  C
  C18      1.0000 0.78430  0.90310  0.71510  Biso   1.000  C
  H5       1.0000 0.78260  0.87010  0.70350  Biso   1.000  H
  O13      1.0000 0.73740  0.94100  0.66070  Biso   1.000  O
  C19      1.0000 0.63830  0.74120  0.87670  Biso   1.000  C
  C20      1.0000 0.71420  0.81470  0.89818  Biso   1.000  C
  H6       1.0000 0.73970  0.83890  0.90560  Biso   1.000  H
  C21      1.0000 0.81040  0.95860  0.76970  Biso   1.000  C
  H7       1.0000 0.82750  0.96300  0.79380  Biso   1.000  H
  C22      1.0000 0.68660  0.74230  0.85701  Biso   1.000  C
  H8       1.0000 0.69350  0.71880  0.83650  Biso   1.000  H
  C23      1.0000 0.95040  0.56470  0.90433  Biso   1.000  C
  H9       1.0000 0.96390  0.53490  0.91650  Biso   1.000  H
  C24      1.0000 0.62740  0.77780  0.90628  Biso   1.000  C
  H10      1.0000 0.59490  0.77770  0.91880  Biso   1.000  H
  C25      1.0000 0.88720  0.42260  0.85610  Biso   1.000  C
  H11      1.0000 0.89540  0.38920  0.86510  Biso   1.000  H
  C26      1.0000 0.56290  0.63330  0.83580  Biso   1.000  C
  H12      1.0000 0.53130  0.64680  0.84510  Biso   1.000  H
  C27      1.0000 0.89360  0.60450  0.85560  Biso   1.000  C
  H13      1.0000 0.86930  0.60100  0.83520  Biso   1.000  H
  C28      1.0000 0.60900  0.66920  0.83830  Biso   1.000  C
  H14      1.0000 0.64040  0.64930  0.84430  Biso   1.000  H
  H15      1.0000 0.61410  0.68690  0.81310  Biso   1.000  H
  C29      1.0000 0.85510  0.42520  0.82610  Biso   1.000  C
  H16      1.0000 0.84560  0.45770  0.81580  Biso   1.000  H
  H17      1.0000 0.84170  0.39470  0.81500  Biso   1.000  H
  C30      1.0000 0.10400  0.40030  0.99490  Biso   1.000  C
  N1       1.0000 0.14420  0.42610  0.01630  Biso   1.000  N
  C31      1.0000 0.18230  0.39180  0.03240  Biso   1.000  C
  O14      1.0000 0.01500  0.66751  0.95934  Biso   1.000  O
  C32      1.0000 0.56140  0.59110  0.82390  Biso   1.000  C
  H18      1.0000 0.59160  0.57540  0.81410  Biso   1.000  H
  H19      1.0000 0.52990  0.57280  0.82400  Biso   1.000  H
  O15      1.0000 0.75706  0.08801  0.75685  Biso   1.000  O
  O16      1.0000 0.81154  0.05685  0.80328  Biso   1.000  O
  C33      1.0000 0.71890  0.96450  0.58730  Biso   1.000  C
  H20      1.0000 0.72590  0.98860  0.60720  Biso   1.000  H
  H21      1.0000 0.70890  0.97610  0.56220  Biso   1.000  H
  C34      1.0000 0.72310  0.91420  0.59440  Biso   1.000  C
  H22      1.0000 0.71630  0.88910  0.57510  Biso   1.000  H
  C35      1.0000 0.73960  0.89940  0.63600  Biso   1.000  C
  H23      1.0000 0.71680  0.87190  0.64590  Biso   1.000  H
  H24      1.0000 0.77510  0.88570  0.63550  Biso   1.000  H
  C36      1.0000 0.14570  0.47960  0.01870  Biso   1.000  C
  Cu3      1.0000 0.15783  0.24822  0.78115  Biso   1.000  Cu
  Cu4      1.0000 0.11924  0.18733  0.83704  Biso   1.000  Cu
  O17      1.0000 0.86059  0.39242  0.95914  Biso   1.000  O
  O18      1.0000 0.96727  0.41857  0.95891  Biso   1.000  O
  O19      1.0000 0.22159  0.24399  0.81464  Biso   1.000  O
  O20      1.0000 0.09797  0.25506  0.86047  Biso   1.000  O
  O21      1.0000 0.14724  0.12897  0.80564  Biso   1.000  O
  O22      1.0000 0.88100  0.30730  0.95993  Biso   1.000  O
  O23      1.0000 0.13427  0.30668  0.81383  Biso   1.000  O
  C37      1.0000 0.22420  0.21980  0.84729  Biso   1.000  C
  O24      1.0000 0.17638  0.18091  0.75675  Biso   1.000  O
  O25      1.0000 0.18762  0.19437  0.86331  Biso   1.000  O
  O26      1.0000 0.40090  0.29380  0.86855  Biso   1.000  O
  O27      1.0000 0.89060  0.49450  0.00420  Biso   1.000  O
  C38      1.0000 0.17040  0.13700  0.77320  Biso   1.000  C
  O28      1.0000 0.10530  0.48622  0.85986  Biso   1.000  O
  C39      1.0000 0.21460  0.94710  0.77172  Biso   1.000  C
  C40      1.0000 0.99220  0.37800  0.94727  Biso   1.000  C
  C41      1.0000 0.10930  0.29870  0.84586  Biso   1.000  C
  C42      1.0000 0.34560  0.14480  0.94787  Biso   1.000  C
  C43      1.0000 0.27580  0.22130  0.86833  Biso   1.000  C
  C44      1.0000 0.03340  0.38540  0.91613  Biso   1.000  C
  C45      1.0000 0.09010  0.34630  0.86752  Biso   1.000  C
  C46      1.0000 0.21320  0.99900  0.75121  Biso   1.000  C
  C47      1.0000 0.19160  0.09040  0.75193  Biso   1.000  C
  C48      1.0000 0.05380  0.34110  0.89792  Biso   1.000  C
  H25      1.0000 0.04310  0.30800  0.90610  Biso   1.000  H
  C49      1.0000 0.08780  0.53320  0.87730  Biso   1.000  C
  H26      1.0000 0.09730  0.53410  0.90510  Biso   1.000  H
  H27      1.0000 0.04990  0.53580  0.87530  Biso   1.000  H
  C50      1.0000 0.33480  0.18580  0.91698  Biso   1.000  C
  C51      1.0000 0.08630  0.43970  0.87414  Biso   1.000  C
  C52      1.0000 0.23660  0.00500  0.71430  Biso   1.000  C
  H28      1.0000 0.25190  0.97630  0.70180  Biso   1.000  H
  C53      1.0000 0.23740  0.05380  0.69600  Biso   1.000  C
  C54      1.0000 0.21570  0.09690  0.71510  Biso   1.000  C
  H29      1.0000 0.21740  0.12990  0.70350  Biso   1.000  H
  O29      1.0000 0.26260  0.05900  0.66070  Biso   1.000  O
  C55      1.0000 0.36170  0.25880  0.87670  Biso   1.000  C
  C56      1.0000 0.28580  0.18530  0.89818  Biso   1.000  C
  H30      1.0000 0.26030  0.16110  0.90560  Biso   1.000  H
  C57      1.0000 0.18960  0.04140  0.76970  Biso   1.000  C
  H31      1.0000 0.17250  0.03700  0.79380  Biso   1.000  H
  C58      1.0000 0.31340  0.25770  0.85701  Biso   1.000  C
  H32      1.0000 0.30650  0.28120  0.83650  Biso   1.000  H
  C59      1.0000 0.04960  0.43530  0.90433  Biso   1.000  C
  H33      1.0000 0.03610  0.46510  0.91650  Biso   1.000  H
  C60      1.0000 0.37260  0.22220  0.90628  Biso   1.000  C
  H34      1.0000 0.40510  0.22230  0.91880  Biso   1.000  H
  C61      1.0000 0.11280  0.57740  0.85610  Biso   1.000  C
  H35      1.0000 0.10460  0.61080  0.86510  Biso   1.000  H
  C62      1.0000 0.43710  0.36670  0.83580  Biso   1.000  C
  H36      1.0000 0.46870  0.35320  0.84510  Biso   1.000  H
  C63      1.0000 0.10640  0.39550  0.85560  Biso   1.000  C
  H37      1.0000 0.13070  0.39900  0.83520  Biso   1.000  H
  C64      1.0000 0.39100  0.33080  0.83830  Biso   1.000  C
  H38      1.0000 0.35960  0.35070  0.84430  Biso   1.000  H
  H39      1.0000 0.38590  0.31310  0.81310  Biso   1.000  H
  C65      1.0000 0.14490  0.57480  0.82610  Biso   1.000  C
  H40      1.0000 0.15440  0.54230  0.81580  Biso   1.000  H
  H41      1.0000 0.15830  0.60530  0.81500  Biso   1.000  H
  C66      1.0000 0.89600  0.59970  0.99490  Biso   1.000  C
  N2       1.0000 0.85580  0.57390  0.01630  Biso   1.000  N
  C67      1.0000 0.81770  0.60820  0.03240  Biso   1.000  C
  O30      1.0000 0.98500  0.33249  0.95934  Biso   1.000  O
  C68      1.0000 0.43860  0.40890  0.82390  Biso   1.000  C
  H42      1.0000 0.40840  0.42460  0.81410  Biso   1.000  H
  H43      1.0000 0.47010  0.42720  0.82400  Biso   1.000  H
  O31      1.0000 0.24294  0.91199  0.75685  Biso   1.000  O
  O32      1.0000 0.18846  0.94315  0.80328  Biso   1.000  O
  C69      1.0000 0.28110  0.03550  0.58730  Biso   1.000  C
  H44      1.0000 0.27410  0.01140  0.60720  Biso   1.000  H
  H45      1.0000 0.29110  0.02390  0.56220  Biso   1.000  H
  C70      1.0000 0.27690  0.08580  0.59440  Biso   1.000  C
  H46      1.0000 0.28370  0.11090  0.57510  Biso   1.000  H
  C71      1.0000 0.26040  0.10060  0.63600  Biso   1.000  C
  H47      1.0000 0.28320  0.12810  0.64590  Biso   1.000  H
  H48      1.0000 0.22490  0.11430  0.63550  Biso   1.000  H
  C72      1.0000 0.85430  0.52040  0.01870  Biso   1.000  C
  Cu5      1.0000 0.24822  0.84217  0.78115  Biso   1.000  Cu
  Cu6      1.0000 0.18733  0.88076  0.83704  Biso   1.000  Cu
  O33      1.0000 0.39242  0.13941  0.95914  Biso   1.000  O
  O34      1.0000 0.41857  0.03273  0.95891  Biso   1.000  O
  O35      1.0000 0.24399  0.77841  0.81464  Biso   1.000  O
  O36      1.0000 0.25506  0.90203  0.86047  Biso   1.000  O
  O37      1.0000 0.12897  0.85276  0.80564  Biso   1.000  O
  O38      1.0000 0.30730  0.11900  0.95993  Biso   1.000  O
  O39      1.0000 0.30668  0.86573  0.81383  Biso   1.000  O
  C73      1.0000 0.21980  0.77580  0.84729  Biso   1.000  C
  O40      1.0000 0.18091  0.82362  0.75675  Biso   1.000  O
  O41      1.0000 0.19437  0.81238  0.86331  Biso   1.000  O
  O42      1.0000 0.29380  0.59910  0.86855  Biso   1.000  O
  O43      1.0000 0.49450  0.10940  0.00420  Biso   1.000  O
  C74      1.0000 0.13700  0.82960  0.77320  Biso   1.000  C
  O44      1.0000 0.48622  0.89470  0.85986  Biso   1.000  O
  C75      1.0000 0.94710  0.78540  0.77172  Biso   1.000  C
  C76      1.0000 0.37800  0.00780  0.94727  Biso   1.000  C
  C77      1.0000 0.29870  0.89070  0.84586  Biso   1.000  C
  C78      1.0000 0.14480  0.65440  0.94787  Biso   1.000  C
  C79      1.0000 0.22130  0.72420  0.86833  Biso   1.000  C
  C80      1.0000 0.38540  0.96660  0.91613  Biso   1.000  C
  C81      1.0000 0.34630  0.90990  0.86752  Biso   1.000  C
  C82      1.0000 0.99900  0.78680  0.75121  Biso   1.000  C
  C83      1.0000 0.09040  0.80840  0.75193  Biso   1.000  C
  C84      1.0000 0.34110  0.94620  0.89792  Biso   1.000  C
  H49      1.0000 0.30800  0.95690  0.90610  Biso   1.000  H
  C85      1.0000 0.53320  0.91220  0.87730  Biso   1.000  C
  H50      1.0000 0.53410  0.90270  0.90510  Biso   1.000  H
  H51      1.0000 0.53580  0.95010  0.87530  Biso   1.000  H
  C86      1.0000 0.18580  0.66520  0.91698  Biso   1.000  C
  C87      1.0000 0.43970  0.91370  0.87414  Biso   1.000  C
  C88      1.0000 0.00500  0.76340  0.71430  Biso   1.000  C
  H52      1.0000 0.97630  0.74810  0.70180  Biso   1.000  H
  C89      1.0000 0.05380  0.76260  0.69600  Biso   1.000  C
  C90      1.0000 0.09690  0.78430  0.71510  Biso   1.000  C
  H53      1.0000 0.12990  0.78260  0.70350  Biso   1.000  H
  O45      1.0000 0.05900  0.73740  0.66070  Biso   1.000  O
  C91      1.0000 0.25880  0.63830  0.87670  Biso   1.000  C
  C92      1.0000 0.18530  0.71420  0.89818  Biso   1.000  C
  H54      1.0000 0.16110  0.73970  0.90560  Biso   1.000  H
  C93      1.0000 0.04140  0.81040  0.76970  Biso   1.000  C
  H55      1.0000 0.03700  0.82750  0.79380  Biso   1.000  H
  C94      1.0000 0.25770  0.68660  0.85701  Biso   1.000  C
  H56      1.0000 0.28120  0.69350  0.83650  Biso   1.000  H
  C95      1.0000 0.43530  0.95040  0.90433  Biso   1.000  C
  H57      1.0000 0.46510  0.96390  0.91650  Biso   1.000  H
  C96      1.0000 0.22220  0.62740  0.90628  Biso   1.000  C
  H58      1.0000 0.22230  0.59490  0.91880  Biso   1.000  H
  C97      1.0000 0.57740  0.88720  0.85610  Biso   1.000  C
  H59      1.0000 0.61080  0.89540  0.86510  Biso   1.000  H
  C98      1.0000 0.36670  0.56290  0.83580  Biso   1.000  C
  H60      1.0000 0.35320  0.53130  0.84510  Biso   1.000  H
  C99      1.0000 0.39550  0.89360  0.85560  Biso   1.000  C
  H61      1.0000 0.39900  0.86930  0.83520  Biso   1.000  H
  C100     1.0000 0.33080  0.60900  0.83830  Biso   1.000  C
  H62      1.0000 0.35070  0.64040  0.84430  Biso   1.000  H
  H63      1.0000 0.31310  0.61410  0.81310  Biso   1.000  H
  C101     1.0000 0.57480  0.85510  0.82610  Biso   1.000  C
  H64      1.0000 0.54230  0.84560  0.81580  Biso   1.000  H
  H65      1.0000 0.60530  0.84170  0.81500  Biso   1.000  H
  C102     1.0000 0.59970  0.10400  0.99490  Biso   1.000  C
  N3       1.0000 0.57390  0.14420  0.01630  Biso   1.000  N
  C103     1.0000 0.60820  0.18230  0.03240  Biso   1.000  C
  O46      1.0000 0.33249  0.01500  0.95934  Biso   1.000  O
  C104     1.0000 0.40890  0.56140  0.82390  Biso   1.000  C
  H66      1.0000 0.42460  0.59160  0.81410  Biso   1.000  H
  H67      1.0000 0.42720  0.52990  0.82400  Biso   1.000  H
  O47      1.0000 0.91199  0.75706  0.75685  Biso   1.000  O
  O48      1.0000 0.94315  0.81154  0.80328  Biso   1.000  O
  C105     1.0000 0.03550  0.71890  0.58730  Biso   1.000  C
  H68      1.0000 0.01140  0.72590  0.60720  Biso   1.000  H
  H69      1.0000 0.02390  0.70890  0.56220  Biso   1.000  H
  C106     1.0000 0.08580  0.72310  0.59440  Biso   1.000  C
  H70      1.0000 0.11090  0.71630  0.57510  Biso   1.000  H
  C107     1.0000 0.10060  0.73960  0.63600  Biso   1.000  C
  H71      1.0000 0.12810  0.71680  0.64590  Biso   1.000  H
  H72      1.0000 0.11430  0.77510  0.63550  Biso   1.000  H
  C108     1.0000 0.52040  0.14570  0.01870  Biso   1.000  C
  Cu7      1.0000 0.75178  0.15783  0.78115  Biso   1.000  Cu
  Cu8      1.0000 0.81267  0.11924  0.83704  Biso   1.000  Cu
  O49      1.0000 0.60758  0.86059  0.95914  Biso   1.000  O
  O50      1.0000 0.58143  0.96727  0.95891  Biso   1.000  O
  O51      1.0000 0.75601  0.22159  0.81464  Biso   1.000  O
  O52      1.0000 0.74494  0.09797  0.86047  Biso   1.000  O
  O53      1.0000 0.87103  0.14724  0.80564  Biso   1.000  O
  O54      1.0000 0.69270  0.88100  0.95993  Biso   1.000  O
  O55      1.0000 0.69332  0.13427  0.81383  Biso   1.000  O
  C109     1.0000 0.78020  0.22420  0.84729  Biso   1.000  C
  O56      1.0000 0.81909  0.17638  0.75675  Biso   1.000  O
  O57      1.0000 0.80563  0.18762  0.86331  Biso   1.000  O
  O58      1.0000 0.70620  0.40090  0.86855  Biso   1.000  O
  O59      1.0000 0.50550  0.89060  0.00420  Biso   1.000  O
  C110     1.0000 0.86300  0.17040  0.77320  Biso   1.000  C
  O60      1.0000 0.51378  0.10530  0.85986  Biso   1.000  O
  C111     1.0000 0.05290  0.21460  0.77172  Biso   1.000  C
  C112     1.0000 0.62200  0.99220  0.94727  Biso   1.000  C
  C113     1.0000 0.70130  0.10930  0.84586  Biso   1.000  C
  C114     1.0000 0.85520  0.34560  0.94787  Biso   1.000  C
  C115     1.0000 0.77870  0.27580  0.86833  Biso   1.000  C
  C116     1.0000 0.61460  0.03340  0.91613  Biso   1.000  C
  C117     1.0000 0.65370  0.09010  0.86752  Biso   1.000  C
  C118     1.0000 0.00100  0.21320  0.75121  Biso   1.000  C
  C119     1.0000 0.90960  0.19160  0.75193  Biso   1.000  C
  C120     1.0000 0.65890  0.05380  0.89792  Biso   1.000  C
  H73      1.0000 0.69200  0.04310  0.90610  Biso   1.000  H
  C121     1.0000 0.46680  0.08780  0.87730  Biso   1.000  C
  H74      1.0000 0.46590  0.09730  0.90510  Biso   1.000  H
  H75      1.0000 0.46420  0.04990  0.87530  Biso   1.000  H
  C122     1.0000 0.81420  0.33480  0.91698  Biso   1.000  C
  C123     1.0000 0.56030  0.08630  0.87414  Biso   1.000  C
  C124     1.0000 0.99500  0.23660  0.71430  Biso   1.000  C
  H76      1.0000 0.02370  0.25190  0.70180  Biso   1.000  H
  C125     1.0000 0.94620  0.23740  0.69600  Biso   1.000  C
  C126     1.0000 0.90310  0.21570  0.71510  Biso   1.000  C
  H77      1.0000 0.87010  0.21740  0.70350  Biso   1.000  H
  O61      1.0000 0.94100  0.26260  0.66070  Biso   1.000  O
  C127     1.0000 0.74120  0.36170  0.87670  Biso   1.000  C
  C128     1.0000 0.81470  0.28580  0.89818  Biso   1.000  C
  H78      1.0000 0.83890  0.26030  0.90560  Biso   1.000  H
  C129     1.0000 0.95860  0.18960  0.76970  Biso   1.000  C
  H79      1.0000 0.96300  0.17250  0.79380  Biso   1.000  H
  C130     1.0000 0.74230  0.31340  0.85701  Biso   1.000  C
  H80      1.0000 0.71880  0.30650  0.83650  Biso   1.000  H
  C131     1.0000 0.56470  0.04960  0.90433  Biso   1.000  C
  H81      1.0000 0.53490  0.03610  0.91650  Biso   1.000  H
  C132     1.0000 0.77780  0.37260  0.90628  Biso   1.000  C
  H82      1.0000 0.77770  0.40510  0.91880  Biso   1.000  H
  C133     1.0000 0.42260  0.11280  0.85610  Biso   1.000  C
  H83      1.0000 0.38920  0.10460  0.86510  Biso   1.000  H
  C134     1.0000 0.63330  0.43710  0.83580  Biso   1.000  C
  H84      1.0000 0.64680  0.46870  0.84510  Biso   1.000  H
  C135     1.0000 0.60450  0.10640  0.85560  Biso   1.000  C
  H85      1.0000 0.60100  0.13070  0.83520  Biso   1.000  H
  C136     1.0000 0.66920  0.39100  0.83830  Biso   1.000  C
  H86      1.0000 0.64930  0.35960  0.84430  Biso   1.000  H
  H87      1.0000 0.68690  0.38590  0.81310  Biso   1.000  H
  C137     1.0000 0.42520  0.14490  0.82610  Biso   1.000  C
  H88      1.0000 0.45770  0.15440  0.81580  Biso   1.000  H
  H89      1.0000 0.39470  0.15830  0.81500  Biso   1.000  H
  C138     1.0000 0.40030  0.89600  0.99490  Biso   1.000  C
  N4       1.0000 0.42610  0.85580  0.01630  Biso   1.000  N
  C139     1.0000 0.39180  0.81770  0.03240  Biso   1.000  C
  O62      1.0000 0.66751  0.98500  0.95934  Biso   1.000  O
  C140     1.0000 0.59110  0.43860  0.82390  Biso   1.000  C
  H90      1.0000 0.57540  0.40840  0.81410  Biso   1.000  H
  H91      1.0000 0.57280  0.47010  0.82400  Biso   1.000  H
  O63      1.0000 0.08801  0.24294  0.75685  Biso   1.000  O
  O64      1.0000 0.05685  0.18846  0.80328  Biso   1.000  O
  C141     1.0000 0.96450  0.28110  0.58730  Biso   1.000  C
  H92      1.0000 0.98860  0.27410  0.60720  Biso   1.000  H
  H93      1.0000 0.97610  0.29110  0.56220  Biso   1.000  H
  C142     1.0000 0.91420  0.27690  0.59440  Biso   1.000  C
  H94      1.0000 0.88910  0.28370  0.57510  Biso   1.000  H
  C143     1.0000 0.89940  0.26040  0.63600  Biso   1.000  C
  H95      1.0000 0.87190  0.28320  0.64590  Biso   1.000  H
  H96      1.0000 0.88570  0.22490  0.63550  Biso   1.000  H
  C144     1.0000 0.47960  0.85430  0.01870  Biso   1.000  C
  Cu9      1.0000 0.15783  0.24822  0.21885  Biso   1.000  Cu
  Cu10     1.0000 0.11924  0.18733  0.16296  Biso   1.000  Cu
  O65      1.0000 0.86059  0.39242  0.04086  Biso   1.000  O
  O66      1.0000 0.96727  0.41857  0.04109  Biso   1.000  O
  O67      1.0000 0.22159  0.24399  0.18536  Biso   1.000  O
  O68      1.0000 0.09797  0.25506  0.13953  Biso   1.000  O
  O69      1.0000 0.14724  0.12897  0.19436  Biso   1.000  O
  O70      1.0000 0.88100  0.30730  0.04007  Biso   1.000  O
  O71      1.0000 0.13427  0.30668  0.18617  Biso   1.000  O
  C145     1.0000 0.22420  0.21980  0.15271  Biso   1.000  C
  O72      1.0000 0.17638  0.18091  0.24325  Biso   1.000  O
  O73      1.0000 0.18762  0.19437  0.13669  Biso   1.000  O
  O74      1.0000 0.40090  0.29380  0.13145  Biso   1.000  O
  O75      1.0000 0.89060  0.49450  0.99580  Biso   1.000  O
  C146     1.0000 0.17040  0.13700  0.22680  Biso   1.000  C
  O76      1.0000 0.10530  0.48622  0.14014  Biso   1.000  O
  C147     1.0000 0.21460  0.94710  0.22828  Biso   1.000  C
  C148     1.0000 0.99220  0.37800  0.05273  Biso   1.000  C
  C149     1.0000 0.10930  0.29870  0.15414  Biso   1.000  C
  C150     1.0000 0.34560  0.14480  0.05213  Biso   1.000  C
  C151     1.0000 0.27580  0.22130  0.13167  Biso   1.000  C
  C152     1.0000 0.03340  0.38540  0.08387  Biso   1.000  C
  C153     1.0000 0.09010  0.34630  0.13248  Biso   1.000  C
  C154     1.0000 0.21320  0.99900  0.24879  Biso   1.000  C
  C155     1.0000 0.19160  0.09040  0.24807  Biso   1.000  C
  C156     1.0000 0.05380  0.34110  0.10208  Biso   1.000  C
  H97      1.0000 0.04310  0.30800  0.09390  Biso   1.000  H
  C157     1.0000 0.08780  0.53320  0.12270  Biso   1.000  C
  H98      1.0000 0.09730  0.53410  0.09490  Biso   1.000  H
  H99      1.0000 0.04990  0.53580  0.12470  Biso   1.000  H
  C158     1.0000 0.33480  0.18580  0.08302  Biso   1.000  C
  C159     1.0000 0.08630  0.43970  0.12586  Biso   1.000  C
  C160     1.0000 0.23660  0.00500  0.28570  Biso   1.000  C
  H100     1.0000 0.25190  0.97630  0.29820  Biso   1.000  H
  C161     1.0000 0.23740  0.05380  0.30400  Biso   1.000  C
  C162     1.0000 0.21570  0.09690  0.28490  Biso   1.000  C
  H101     1.0000 0.21740  0.12990  0.29650  Biso   1.000  H
  O77      1.0000 0.26260  0.05900  0.33930  Biso   1.000  O
  C163     1.0000 0.36170  0.25880  0.12330  Biso   1.000  C
  C164     1.0000 0.28580  0.18530  0.10182  Biso   1.000  C
  H102     1.0000 0.26030  0.16110  0.09440  Biso   1.000  H
  C165     1.0000 0.18960  0.04140  0.23030  Biso   1.000  C
  H103     1.0000 0.17250  0.03700  0.20620  Biso   1.000  H
  C166     1.0000 0.31340  0.25770  0.14299  Biso   1.000  C
  H104     1.0000 0.30650  0.28120  0.16350  Biso   1.000  H
  C167     1.0000 0.04960  0.43530  0.09567  Biso   1.000  C
  H105     1.0000 0.03610  0.46510  0.08350  Biso   1.000  H
  C168     1.0000 0.37260  0.22220  0.09372  Biso   1.000  C
  H106     1.0000 0.40510  0.22230  0.08120  Biso   1.000  H
  C169     1.0000 0.11280  0.57740  0.14390  Biso   1.000  C
  H107     1.0000 0.10460  0.61080  0.13490  Biso   1.000  H
  C170     1.0000 0.43710  0.36670  0.16420  Biso   1.000  C
  H108     1.0000 0.46870  0.35320  0.15490  Biso   1.000  H
  C171     1.0000 0.10640  0.39550  0.14440  Biso   1.000  C
  H109     1.0000 0.13070  0.39900  0.16480  Biso   1.000  H
  C172     1.0000 0.39100  0.33080  0.16170  Biso   1.000  C
  H110     1.0000 0.35960  0.35070  0.15570  Biso   1.000  H
  H111     1.0000 0.38590  0.31310  0.18690  Biso   1.000  H
  C173     1.0000 0.14490  0.57480  0.17390  Biso   1.000  C
  H112     1.0000 0.15440  0.54230  0.18420  Biso   1.000  H
  H113     1.0000 0.15830  0.60530  0.18500  Biso   1.000  H
  C174     1.0000 0.89600  0.59970  0.00510  Biso   1.000  C
  N5       1.0000 0.85580  0.57390  0.98370  Biso   1.000  N
  C175     1.0000 0.81770  0.60820  0.96760  Biso   1.000  C
  O78      1.0000 0.98500  0.33249  0.04066  Biso   1.000  O
  C176     1.0000 0.43860  0.40890  0.17610  Biso   1.000  C
  H114     1.0000 0.40840  0.42460  0.18590  Biso   1.000  H
  H115     1.0000 0.47010  0.42720  0.17600  Biso   1.000  H
  O79      1.0000 0.24294  0.91199  0.24315  Biso   1.000  O
  O80      1.0000 0.18846  0.94315  0.19672  Biso   1.000  O
  C177     1.0000 0.28110  0.03550  0.41270  Biso   1.000  C
  H116     1.0000 0.27410  0.01140  0.39280  Biso   1.000  H
  H117     1.0000 0.29110  0.02390  0.43780  Biso   1.000  H
  C178     1.0000 0.27690  0.08580  0.40560  Biso   1.000  C
  H118     1.0000 0.28370  0.11090  0.42490  Biso   1.000  H
  C179     1.0000 0.26040  0.10060  0.36400  Biso   1.000  C
  H119     1.0000 0.28320  0.12810  0.35410  Biso   1.000  H
  H120     1.0000 0.22490  0.11430  0.36450  Biso   1.000  H
  C180     1.0000 0.85430  0.52040  0.98130  Biso   1.000  C
  Cu11     1.0000 0.84217  0.75178  0.21885  Biso   1.000  Cu
  Cu12     1.0000 0.88076  0.81267  0.16296  Biso   1.000  Cu
  O81      1.0000 0.13941  0.60758  0.04086  Biso   1.000  O
  O82      1.0000 0.03273  0.58143  0.04109  Biso   1.000  O
  O83      1.0000 0.77841  0.75601  0.18536  Biso   1.000  O
  O84      1.0000 0.90203  0.74494  0.13953  Biso   1.000  O
  O85      1.0000 0.85276  0.87103  0.19436  Biso   1.000  O
  O86      1.0000 0.11900  0.69270  0.04007  Biso   1.000  O
  O87      1.0000 0.86573  0.69332  0.18617  Biso   1.000  O
  C181     1.0000 0.77580  0.78020  0.15271  Biso   1.000  C
  O88      1.0000 0.82362  0.81909  0.24325  Biso   1.000  O
  O89      1.0000 0.81238  0.80563  0.13669  Biso   1.000  O
  O90      1.0000 0.59910  0.70620  0.13145  Biso   1.000  O
  O91      1.0000 0.10940  0.50550  0.99580  Biso   1.000  O
  C182     1.0000 0.82960  0.86300  0.22680  Biso   1.000  C
  O92      1.0000 0.89470  0.51378  0.14014  Biso   1.000  O
  C183     1.0000 0.78540  0.05290  0.22828  Biso   1.000  C
  C184     1.0000 0.00780  0.62200  0.05273  Biso   1.000  C
  C185     1.0000 0.89070  0.70130  0.15414  Biso   1.000  C
  C186     1.0000 0.65440  0.85520  0.05213  Biso   1.000  C
  C187     1.0000 0.72420  0.77870  0.13167  Biso   1.000  C
  C188     1.0000 0.96660  0.61460  0.08387  Biso   1.000  C
  C189     1.0000 0.90990  0.65370  0.13248  Biso   1.000  C
  C190     1.0000 0.78680  0.00100  0.24879  Biso   1.000  C
  C191     1.0000 0.80840  0.90960  0.24807  Biso   1.000  C
  C192     1.0000 0.94620  0.65890  0.10208  Biso   1.000  C
  H121     1.0000 0.95690  0.69200  0.09390  Biso   1.000  H
  C193     1.0000 0.91220  0.46680  0.12270  Biso   1.000  C
  H122     1.0000 0.90270  0.46590  0.09490  Biso   1.000  H
  H123     1.0000 0.95010  0.46420  0.12470  Biso   1.000  H
  C194     1.0000 0.66520  0.81420  0.08302  Biso   1.000  C
  C195     1.0000 0.91370  0.56030  0.12586  Biso   1.000  C
  C196     1.0000 0.76340  0.99500  0.28570  Biso   1.000  C
  H124     1.0000 0.74810  0.02370  0.29820  Biso   1.000  H
  C197     1.0000 0.76260  0.94620  0.30400  Biso   1.000  C
  C198     1.0000 0.78430  0.90310  0.28490  Biso   1.000  C
  H125     1.0000 0.78260  0.87010  0.29650  Biso   1.000  H
  O93      1.0000 0.73740  0.94100  0.33930  Biso   1.000  O
  C199     1.0000 0.63830  0.74120  0.12330  Biso   1.000  C
  C200     1.0000 0.71420  0.81470  0.10182  Biso   1.000  C
  H126     1.0000 0.73970  0.83890  0.09440  Biso   1.000  H
  C201     1.0000 0.81040  0.95860  0.23030  Biso   1.000  C
  H127     1.0000 0.82750  0.96300  0.20620  Biso   1.000  H
  C202     1.0000 0.68660  0.74230  0.14299  Biso   1.000  C
  H128     1.0000 0.69350  0.71880  0.16350  Biso   1.000  H
  C203     1.0000 0.95040  0.56470  0.09567  Biso   1.000  C
  H129     1.0000 0.96390  0.53490  0.08350  Biso   1.000  H
  C204     1.0000 0.62740  0.77780  0.09372  Biso   1.000  C
  H130     1.0000 0.59490  0.77770  0.08120  Biso   1.000  H
  C205     1.0000 0.88720  0.42260  0.14390  Biso   1.000  C
  H131     1.0000 0.89540  0.38920  0.13490  Biso   1.000  H
  C206     1.0000 0.56290  0.63330  0.16420  Biso   1.000  C
  H132     1.0000 0.53130  0.64680  0.15490  Biso   1.000  H
  C207     1.0000 0.89360  0.60450  0.14440  Biso   1.000  C
  H133     1.0000 0.86930  0.60100  0.16480  Biso   1.000  H
  C208     1.0000 0.60900  0.66920  0.16170  Biso   1.000  C
  H134     1.0000 0.64040  0.64930  0.15570  Biso   1.000  H
  H135     1.0000 0.61410  0.68690  0.18690  Biso   1.000  H
  C209     1.0000 0.85510  0.42520  0.17390  Biso   1.000  C
  H136     1.0000 0.84560  0.45770  0.18420  Biso   1.000  H
  H137     1.0000 0.84170  0.39470  0.18500  Biso   1.000  H
  C210     1.0000 0.10400  0.40030  0.00510  Biso   1.000  C
  N6       1.0000 0.14420  0.42610  0.98370  Biso   1.000  N
  C211     1.0000 0.18230  0.39180  0.96760  Biso   1.000  C
  O94      1.0000 0.01500  0.66751  0.04066  Biso   1.000  O
  C212     1.0000 0.56140  0.59110  0.17610  Biso   1.000  C
  H138     1.0000 0.59160  0.57540  0.18590  Biso   1.000  H
  H139     1.0000 0.52990  0.57280  0.17600  Biso   1.000  H
  O95      1.0000 0.75706  0.08801  0.24315  Biso   1.000  O
  O96      1.0000 0.81154  0.05685  0.19672  Biso   1.000  O
  C213     1.0000 0.71890  0.96450  0.41270  Biso   1.000  C
  H140     1.0000 0.72590  0.98860  0.39280  Biso   1.000  H
  H141     1.0000 0.70890  0.97610  0.43780  Biso   1.000  H
  C214     1.0000 0.72310  0.91420  0.40560  Biso   1.000  C
  H142     1.0000 0.71630  0.88910  0.42490  Biso   1.000  H
  C215     1.0000 0.73960  0.89940  0.36400  Biso   1.000  C
  H143     1.0000 0.71680  0.87190  0.35410  Biso   1.000  H
  H144     1.0000 0.77510  0.88570  0.36450  Biso   1.000  H
  C216     1.0000 0.14570  0.47960  0.98130  Biso   1.000  C
  Cu13     1.0000 0.75178  0.15783  0.21885  Biso   1.000  Cu
  Cu14     1.0000 0.81267  0.11924  0.16296  Biso   1.000  Cu
  O97      1.0000 0.60758  0.86059  0.04086  Biso   1.000  O
  O98      1.0000 0.58143  0.96727  0.04109  Biso   1.000  O
  O99      1.0000 0.75601  0.22159  0.18536  Biso   1.000  O
  O100     1.0000 0.74494  0.09797  0.13953  Biso   1.000  O
  O101     1.0000 0.87103  0.14724  0.19436  Biso   1.000  O
  O102     1.0000 0.69270  0.88100  0.04007  Biso   1.000  O
  O103     1.0000 0.69332  0.13427  0.18617  Biso   1.000  O
  C217     1.0000 0.78020  0.22420  0.15271  Biso   1.000  C
  O104     1.0000 0.81909  0.17638  0.24325  Biso   1.000  O
  O105     1.0000 0.80563  0.18762  0.13669  Biso   1.000  O
  O106     1.0000 0.70620  0.40090  0.13145  Biso   1.000  O
  O107     1.0000 0.50550  0.89060  0.99580  Biso   1.000  O
  C218     1.0000 0.86300  0.17040  0.22680  Biso   1.000  C
  O108     1.0000 0.51378  0.10530  0.14014  Biso   1.000  O
  C219     1.0000 0.05290  0.21460  0.22828  Biso   1.000  C
  C220     1.0000 0.62200  0.99220  0.05273  Biso   1.000  C
  C221     1.0000 0.70130  0.10930  0.15414  Biso   1.000  C
  C222     1.0000 0.85520  0.34560  0.05213  Biso   1.000  C
  C223     1.0000 0.77870  0.27580  0.13167  Biso   1.000  C
  C224     1.0000 0.61460  0.03340  0.08387  Biso   1.000  C
  C225     1.0000 0.65370  0.09010  0.13248  Biso   1.000  C
  C226     1.0000 0.00100  0.21320  0.24879  Biso   1.000  C
  C227     1.0000 0.90960  0.19160  0.24807  Biso   1.000  C
  C228     1.0000 0.65890  0.05380  0.10208  Biso   1.000  C
  H145     1.0000 0.69200  0.04310  0.09390  Biso   1.000  H
  C229     1.0000 0.46680  0.08780  0.12270  Biso   1.000  C
  H146     1.0000 0.46590  0.09730  0.09490  Biso   1.000  H
  H147     1.0000 0.46420  0.04990  0.12470  Biso   1.000  H
  C230     1.0000 0.81420  0.33480  0.08302  Biso   1.000  C
  C231     1.0000 0.56030  0.08630  0.12586  Biso   1.000  C
  C232     1.0000 0.99500  0.23660  0.28570  Biso   1.000  C
  H148     1.0000 0.02370  0.25190  0.29820  Biso   1.000  H
  C233     1.0000 0.94620  0.23740  0.30400  Biso   1.000  C
  C234     1.0000 0.90310  0.21570  0.28490  Biso   1.000  C
  H149     1.0000 0.87010  0.21740  0.29650  Biso   1.000  H
  O109     1.0000 0.94100  0.26260  0.33930  Biso   1.000  O
  C235     1.0000 0.74120  0.36170  0.12330  Biso   1.000  C
  C236     1.0000 0.81470  0.28580  0.10182  Biso   1.000  C
  H150     1.0000 0.83890  0.26030  0.09440  Biso   1.000  H
  C237     1.0000 0.95860  0.18960  0.23030  Biso   1.000  C
  H151     1.0000 0.96300  0.17250  0.20620  Biso   1.000  H
  C238     1.0000 0.74230  0.31340  0.14299  Biso   1.000  C
  H152     1.0000 0.71880  0.30650  0.16350  Biso   1.000  H
  C239     1.0000 0.56470  0.04960  0.09567  Biso   1.000  C
  H153     1.0000 0.53490  0.03610  0.08350  Biso   1.000  H
  C240     1.0000 0.77780  0.37260  0.09372  Biso   1.000  C
  H154     1.0000 0.77770  0.40510  0.08120  Biso   1.000  H
  C241     1.0000 0.42260  0.11280  0.14390  Biso   1.000  C
  H155     1.0000 0.38920  0.10460  0.13490  Biso   1.000  H
  C242     1.0000 0.63330  0.43710  0.16420  Biso   1.000  C
  H156     1.0000 0.64680  0.46870  0.15490  Biso   1.000  H
  C243     1.0000 0.60450  0.10640  0.14440  Biso   1.000  C
  H157     1.0000 0.60100  0.13070  0.16480  Biso   1.000  H
  C244     1.0000 0.66920  0.39100  0.16170  Biso   1.000  C
  H158     1.0000 0.64930  0.35960  0.15570  Biso   1.000  H
  H159     1.0000 0.68690  0.38590  0.18690  Biso   1.000  H
  C245     1.0000 0.42520  0.14490  0.17390  Biso   1.000  C
  H160     1.0000 0.45770  0.15440  0.18420  Biso   1.000  H
  H161     1.0000 0.39470  0.15830  0.18500  Biso   1.000  H
  C246     1.0000 0.40030  0.89600  0.00510  Biso   1.000  C
  N7       1.0000 0.42610  0.85580  0.98370  Biso   1.000  N
  C247     1.0000 0.39180  0.81770  0.96760  Biso   1.000  C
  O110     1.0000 0.66751  0.98500  0.04066  Biso   1.000  O
  C248     1.0000 0.59110  0.43860  0.17610  Biso   1.000  C
  H162     1.0000 0.57540  0.40840  0.18590  Biso   1.000  H
  H163     1.0000 0.57280  0.47010  0.17600  Biso   1.000  H
  O111     1.0000 0.08801  0.24294  0.24315  Biso   1.000  O
  O112     1.0000 0.05685  0.18846  0.19672  Biso   1.000  O
  C249     1.0000 0.96450  0.28110  0.41270  Biso   1.000  C
  H164     1.0000 0.98860  0.27410  0.39280  Biso   1.000  H
  H165     1.0000 0.97610  0.29110  0.43780  Biso   1.000  H
  C250     1.0000 0.91420  0.27690  0.40560  Biso   1.000  C
  H166     1.0000 0.88910  0.28370  0.42490  Biso   1.000  H
  C251     1.0000 0.89940  0.26040  0.36400  Biso   1.000  C
  H167     1.0000 0.87190  0.28320  0.35410  Biso   1.000  H
  H168     1.0000 0.88570  0.22490  0.36450  Biso   1.000  H
  C252     1.0000 0.47960  0.85430  0.98130  Biso   1.000  C
  Cu15     1.0000 0.24822  0.84217  0.21885  Biso   1.000  Cu
  Cu16     1.0000 0.18733  0.88076  0.16296  Biso   1.000  Cu
  O113     1.0000 0.39242  0.13941  0.04086  Biso   1.000  O
  O114     1.0000 0.41857  0.03273  0.04109  Biso   1.000  O
  O115     1.0000 0.24399  0.77841  0.18536  Biso   1.000  O
  O116     1.0000 0.25506  0.90203  0.13953  Biso   1.000  O
  O117     1.0000 0.12897  0.85276  0.19436  Biso   1.000  O
  O118     1.0000 0.30730  0.11900  0.04007  Biso   1.000  O
  O119     1.0000 0.30668  0.86573  0.18617  Biso   1.000  O
  C253     1.0000 0.21980  0.77580  0.15271  Biso   1.000  C
  O120     1.0000 0.18091  0.82362  0.24325  Biso   1.000  O
  O121     1.0000 0.19437  0.81238  0.13669  Biso   1.000  O
  O122     1.0000 0.29380  0.59910  0.13145  Biso   1.000  O
  O123     1.0000 0.49450  0.10940  0.99580  Biso   1.000  O
  C254     1.0000 0.13700  0.82960  0.22680  Biso   1.000  C
  O124     1.0000 0.48622  0.89470  0.14014  Biso   1.000  O
  C255     1.0000 0.94710  0.78540  0.22828  Biso   1.000  C
  C256     1.0000 0.37800  0.00780  0.05273  Biso   1.000  C
  C257     1.0000 0.29870  0.89070  0.15414  Biso   1.000  C
  C258     1.0000 0.14480  0.65440  0.05213  Biso   1.000  C
  C259     1.0000 0.22130  0.72420  0.13167  Biso   1.000  C
  C260     1.0000 0.38540  0.96660  0.08387  Biso   1.000  C
  C261     1.0000 0.34630  0.90990  0.13248  Biso   1.000  C
  C262     1.0000 0.99900  0.78680  0.24879  Biso   1.000  C
  C263     1.0000 0.09040  0.80840  0.24807  Biso   1.000  C
  C264     1.0000 0.34110  0.94620  0.10208  Biso   1.000  C
  H169     1.0000 0.30800  0.95690  0.09390  Biso   1.000  H
  C265     1.0000 0.53320  0.91220  0.12270  Biso   1.000  C
  H170     1.0000 0.53410  0.90270  0.09490  Biso   1.000  H
  H171     1.0000 0.53580  0.95010  0.12470  Biso   1.000  H
  C266     1.0000 0.18580  0.66520  0.08302  Biso   1.000  C
  C267     1.0000 0.43970  0.91370  0.12586  Biso   1.000  C
  C268     1.0000 0.00500  0.76340  0.28570  Biso   1.000  C
  H172     1.0000 0.97630  0.74810  0.29820  Biso   1.000  H
  C269     1.0000 0.05380  0.76260  0.30400  Biso   1.000  C
  C270     1.0000 0.09690  0.78430  0.28490  Biso   1.000  C
  H173     1.0000 0.12990  0.78260  0.29650  Biso   1.000  H
  O125     1.0000 0.05900  0.73740  0.33930  Biso   1.000  O
  C271     1.0000 0.25880  0.63830  0.12330  Biso   1.000  C
  C272     1.0000 0.18530  0.71420  0.10182  Biso   1.000  C
  H174     1.0000 0.16110  0.73970  0.09440  Biso   1.000  H
  C273     1.0000 0.04140  0.81040  0.23030  Biso   1.000  C
  H175     1.0000 0.03700  0.82750  0.20620  Biso   1.000  H
  C274     1.0000 0.25770  0.68660  0.14299  Biso   1.000  C
  H176     1.0000 0.28120  0.69350  0.16350  Biso   1.000  H
  C275     1.0000 0.43530  0.95040  0.09567  Biso   1.000  C
  H177     1.0000 0.46510  0.96390  0.08350  Biso   1.000  H
  C276     1.0000 0.22220  0.62740  0.09372  Biso   1.000  C
  H178     1.0000 0.22230  0.59490  0.08120  Biso   1.000  H
  C277     1.0000 0.57740  0.88720  0.14390  Biso   1.000  C
  H179     1.0000 0.61080  0.89540  0.13490  Biso   1.000  H
  C278     1.0000 0.36670  0.56290  0.16420  Biso   1.000  C
  H180     1.0000 0.35320  0.53130  0.15490  Biso   1.000  H
  C279     1.0000 0.39550  0.89360  0.14440  Biso   1.000  C
  H181     1.0000 0.39900  0.86930  0.16480  Biso   1.000  H
  C280     1.0000 0.33080  0.60900  0.16170  Biso   1.000  C
  H182     1.0000 0.35070  0.64040  0.15570  Biso   1.000  H
  H183     1.0000 0.31310  0.61410  0.18690  Biso   1.000  H
  C281     1.0000 0.57480  0.85510  0.17390  Biso   1.000  C
  H184     1.0000 0.54230  0.84560  0.18420  Biso   1.000  H
  H185     1.0000 0.60530  0.84170  0.18500  Biso   1.000  H
  C282     1.0000 0.59970  0.10400  0.00510  Biso   1.000  C
  N8       1.0000 0.57390  0.14420  0.98370  Biso   1.000  N
  C283     1.0000 0.60820  0.18230  0.96760  Biso   1.000  C
  O126     1.0000 0.33249  0.01500  0.04066  Biso   1.000  O
  C284     1.0000 0.40890  0.56140  0.17610  Biso   1.000  C
  H186     1.0000 0.42460  0.59160  0.18590  Biso   1.000  H
  H187     1.0000 0.42720  0.52990  0.17600  Biso   1.000  H
  O127     1.0000 0.91199  0.75706  0.24315  Biso   1.000  O
  O128     1.0000 0.94315  0.81154  0.19672  Biso   1.000  O
  C285     1.0000 0.03550  0.71890  0.41270  Biso   1.000  C
  H188     1.0000 0.01140  0.72590  0.39280  Biso   1.000  H
  H189     1.0000 0.02390  0.70890  0.43780  Biso   1.000  H
  C286     1.0000 0.08580  0.72310  0.40560  Biso   1.000  C
  H190     1.0000 0.11090  0.71630  0.42490  Biso   1.000  H
  C287     1.0000 0.10060  0.73960  0.36400  Biso   1.000  C
  H191     1.0000 0.12810  0.71680  0.35410  Biso   1.000  H
  H192     1.0000 0.11430  0.77510  0.36450  Biso   1.000  H
  C288     1.0000 0.52040  0.14570  0.98130  Biso   1.000  C
  Cu17     1.0000 0.08787  0.58628  0.00000  Biso   1.000  Cu
  Cu18     1.0000 0.06485  0.68745  0.00000  Biso   1.000  Cu
  Cu19     1.0000 0.91213  0.41372  0.00000  Biso   1.000  Cu
  Cu20     1.0000 0.93515  0.31255  0.00000  Biso   1.000  Cu
  Cu21     1.0000 0.41372  0.08787  0.00000  Biso   1.000  Cu
  Cu22     1.0000 0.31255  0.06485  0.00000  Biso   1.000  Cu
  Cu23     1.0000 0.58628  0.91213  0.00000  Biso   1.000  Cu
  Cu24     1.0000 0.68745  0.93515  0.00000  Biso   1.000  Cu
  Cu25     1.0000 0.34217  0.25178  0.28115  Biso   1.000  Cu
  Cu26     1.0000 0.38076  0.31267  0.33704  Biso   1.000  Cu
  O129     1.0000 0.63941  0.10758  0.45914  Biso   1.000  O
  O130     1.0000 0.53273  0.08143  0.45891  Biso   1.000  O
  O131     1.0000 0.27841  0.25601  0.31464  Biso   1.000  O
  O132     1.0000 0.40203  0.24494  0.36047  Biso   1.000  O
  O133     1.0000 0.35276  0.37103  0.30564  Biso   1.000  O
  O134     1.0000 0.61900  0.19270  0.45993  Biso   1.000  O
  O135     1.0000 0.36573  0.19332  0.31383  Biso   1.000  O
  C289     1.0000 0.27580  0.28020  0.34729  Biso   1.000  C
  O136     1.0000 0.32362  0.31909  0.25675  Biso   1.000  O
  O137     1.0000 0.31238  0.30563  0.36331  Biso   1.000  O
  O138     1.0000 0.09910  0.20620  0.36855  Biso   1.000  O
  O139     1.0000 0.60940  0.00550  0.50420  Biso   1.000  O
  C290     1.0000 0.32960  0.36300  0.27320  Biso   1.000  C
  O140     1.0000 0.39470  0.01378  0.35986  Biso   1.000  O
  C291     1.0000 0.28540  0.55290  0.27172  Biso   1.000  C
  C292     1.0000 0.50780  0.12200  0.44727  Biso   1.000  C
  C293     1.0000 0.39070  0.20130  0.34586  Biso   1.000  C
  C294     1.0000 0.15440  0.35520  0.44787  Biso   1.000  C
  C295     1.0000 0.22420  0.27870  0.36833  Biso   1.000  C
  C296     1.0000 0.46660  0.11460  0.41613  Biso   1.000  C
  C297     1.0000 0.40990  0.15370  0.36752  Biso   1.000  C
  C298     1.0000 0.28680  0.50100  0.25121  Biso   1.000  C
  C299     1.0000 0.30840  0.40960  0.25193  Biso   1.000  C
  C300     1.0000 0.44620  0.15890  0.39792  Biso   1.000  C
  H193     1.0000 0.45690  0.19200  0.40610  Biso   1.000  H
  C301     1.0000 0.41220  0.96680  0.37730  Biso   1.000  C
  H194     1.0000 0.40270  0.96590  0.40510  Biso   1.000  H
  H195     1.0000 0.45010  0.96420  0.37530  Biso   1.000  H
  C302     1.0000 0.16520  0.31420  0.41698  Biso   1.000  C
  C303     1.0000 0.41370  0.06030  0.37414  Biso   1.000  C
  C304     1.0000 0.26340  0.49500  0.21430  Biso   1.000  C
  H196     1.0000 0.24810  0.52370  0.20180  Biso   1.000  H
  C305     1.0000 0.26260  0.44620  0.19600  Biso   1.000  C
  C306     1.0000 0.28430  0.40310  0.21510  Biso   1.000  C
  H197     1.0000 0.28260  0.37010  0.20350  Biso   1.000  H
  O141     1.0000 0.23740  0.44100  0.16070  Biso   1.000  O
  C307     1.0000 0.13830  0.24120  0.37670  Biso   1.000  C
  C308     1.0000 0.21420  0.31470  0.39818  Biso   1.000  C
  H198     1.0000 0.23970  0.33890  0.40560  Biso   1.000  H
  C309     1.0000 0.31040  0.45860  0.26970  Biso   1.000  C
  H199     1.0000 0.32750  0.46300  0.29380  Biso   1.000  H
  C310     1.0000 0.18660  0.24230  0.35701  Biso   1.000  C
  H200     1.0000 0.19350  0.21880  0.33650  Biso   1.000  H
  C311     1.0000 0.45040  0.06470  0.40433  Biso   1.000  C
  H201     1.0000 0.46390  0.03490  0.41650  Biso   1.000  H
  C312     1.0000 0.12740  0.27780  0.40628  Biso   1.000  C
  H202     1.0000 0.09490  0.27770  0.41880  Biso   1.000  H
  C313     1.0000 0.38720  0.92260  0.35610  Biso   1.000  C
  H203     1.0000 0.39540  0.88920  0.36510  Biso   1.000  H
  C314     1.0000 0.06290  0.13330  0.33580  Biso   1.000  C
  H204     1.0000 0.03130  0.14680  0.34510  Biso   1.000  H
  C315     1.0000 0.39360  0.10450  0.35560  Biso   1.000  C
  H205     1.0000 0.36930  0.10100  0.33520  Biso   1.000  H
  C316     1.0000 0.10900  0.16920  0.33830  Biso   1.000  C
  H206     1.0000 0.14040  0.14930  0.34430  Biso   1.000  H
  H207     1.0000 0.11410  0.18690  0.31310  Biso   1.000  H
  C317     1.0000 0.35510  0.92520  0.32610  Biso   1.000  C
  H208     1.0000 0.34560  0.95770  0.31580  Biso   1.000  H
  H209     1.0000 0.34170  0.89470  0.31500  Biso   1.000  H
  C318     1.0000 0.60400  0.90030  0.49490  Biso   1.000  C
  N9       1.0000 0.64420  0.92610  0.51630  Biso   1.000  N
  C319     1.0000 0.68230  0.89180  0.53240  Biso   1.000  C
  O142     1.0000 0.51500  0.16751  0.45934  Biso   1.000  O
  C320     1.0000 0.06140  0.09110  0.32390  Biso   1.000  C
  H210     1.0000 0.09160  0.07540  0.31410  Biso   1.000  H
  H211     1.0000 0.02990  0.07280  0.32400  Biso   1.000  H
  O143     1.0000 0.25706  0.58801  0.25685  Biso   1.000  O
  O144     1.0000 0.31154  0.55685  0.30328  Biso   1.000  O
  C321     1.0000 0.21890  0.46450  0.08730  Biso   1.000  C
  H212     1.0000 0.22590  0.48860  0.10720  Biso   1.000  H
  H213     1.0000 0.20890  0.47610  0.06220  Biso   1.000  H
  C322     1.0000 0.22310  0.41420  0.09440  Biso   1.000  C
  H214     1.0000 0.21630  0.38910  0.07510  Biso   1.000  H
  C323     1.0000 0.23960  0.39940  0.13600  Biso   1.000  C
  H215     1.0000 0.21680  0.37190  0.14590  Biso   1.000  H
  H216     1.0000 0.27510  0.38570  0.13550  Biso   1.000  H
  C324     1.0000 0.64570  0.97960  0.51870  Biso   1.000  C
  Cu27     1.0000 0.65783  0.74822  0.28115  Biso   1.000  Cu
  Cu28     1.0000 0.61924  0.68733  0.33704  Biso   1.000  Cu
  O145     1.0000 0.36059  0.89242  0.45914  Biso   1.000  O
  O146     1.0000 0.46727  0.91857  0.45891  Biso   1.000  O
  O147     1.0000 0.72159  0.74399  0.31464  Biso   1.000  O
  O148     1.0000 0.59797  0.75506  0.36047  Biso   1.000  O
  O149     1.0000 0.64724  0.62897  0.30564  Biso   1.000  O
  O150     1.0000 0.38100  0.80730  0.45993  Biso   1.000  O
  O151     1.0000 0.63427  0.80668  0.31383  Biso   1.000  O
  C325     1.0000 0.72420  0.71980  0.34729  Biso   1.000  C
  O152     1.0000 0.67638  0.68091  0.25675  Biso   1.000  O
  O153     1.0000 0.68762  0.69437  0.36331  Biso   1.000  O
  O154     1.0000 0.90090  0.79380  0.36855  Biso   1.000  O
  O155     1.0000 0.39060  0.99450  0.50420  Biso   1.000  O
  C326     1.0000 0.67040  0.63700  0.27320  Biso   1.000  C
  O156     1.0000 0.60530  0.98622  0.35986  Biso   1.000  O
  C327     1.0000 0.71460  0.44710  0.27172  Biso   1.000  C
  C328     1.0000 0.49220  0.87800  0.44727  Biso   1.000  C
  C329     1.0000 0.60930  0.79870  0.34586  Biso   1.000  C
  C330     1.0000 0.84560  0.64480  0.44787  Biso   1.000  C
  C331     1.0000 0.77580  0.72130  0.36833  Biso   1.000  C
  C332     1.0000 0.53340  0.88540  0.41613  Biso   1.000  C
  C333     1.0000 0.59010  0.84630  0.36752  Biso   1.000  C
  C334     1.0000 0.71320  0.49900  0.25121  Biso   1.000  C
  C335     1.0000 0.69160  0.59040  0.25193  Biso   1.000  C
  C336     1.0000 0.55380  0.84110  0.39792  Biso   1.000  C
  H217     1.0000 0.54310  0.80800  0.40610  Biso   1.000  H
  C337     1.0000 0.58780  0.03320  0.37730  Biso   1.000  C
  H218     1.0000 0.59730  0.03410  0.40510  Biso   1.000  H
  H219     1.0000 0.54990  0.03580  0.37530  Biso   1.000  H
  C338     1.0000 0.83480  0.68580  0.41698  Biso   1.000  C
  C339     1.0000 0.58630  0.93970  0.37414  Biso   1.000  C
  C340     1.0000 0.73660  0.50500  0.21430  Biso   1.000  C
  H220     1.0000 0.75190  0.47630  0.20180  Biso   1.000  H
  C341     1.0000 0.73740  0.55380  0.19600  Biso   1.000  C
  C342     1.0000 0.71570  0.59690  0.21510  Biso   1.000  C
  H221     1.0000 0.71740  0.62990  0.20350  Biso   1.000  H
  O157     1.0000 0.76260  0.55900  0.16070  Biso   1.000  O
  C343     1.0000 0.86170  0.75880  0.37670  Biso   1.000  C
  C344     1.0000 0.78580  0.68530  0.39818  Biso   1.000  C
  H222     1.0000 0.76030  0.66110  0.40560  Biso   1.000  H
  C345     1.0000 0.68960  0.54140  0.26970  Biso   1.000  C
  H223     1.0000 0.67250  0.53700  0.29380  Biso   1.000  H
  C346     1.0000 0.81340  0.75770  0.35701  Biso   1.000  C
  H224     1.0000 0.80650  0.78120  0.33650  Biso   1.000  H
  C347     1.0000 0.54960  0.93530  0.40433  Biso   1.000  C
  H225     1.0000 0.53610  0.96510  0.41650  Biso   1.000  H
  C348     1.0000 0.87260  0.72220  0.40628  Biso   1.000  C
  H226     1.0000 0.90510  0.72230  0.41880  Biso   1.000  H
  C349     1.0000 0.61280  0.07740  0.35610  Biso   1.000  C
  H227     1.0000 0.60460  0.11080  0.36510  Biso   1.000  H
  C350     1.0000 0.93710  0.86670  0.33580  Biso   1.000  C
  H228     1.0000 0.96870  0.85320  0.34510  Biso   1.000  H
  C351     1.0000 0.60640  0.89550  0.35560  Biso   1.000  C
  H229     1.0000 0.63070  0.89900  0.33520  Biso   1.000  H
  C352     1.0000 0.89100  0.83080  0.33830  Biso   1.000  C
  H230     1.0000 0.85960  0.85070  0.34430  Biso   1.000  H
  H231     1.0000 0.88590  0.81310  0.31310  Biso   1.000  H
  C353     1.0000 0.64490  0.07480  0.32610  Biso   1.000  C
  H232     1.0000 0.65440  0.04230  0.31580  Biso   1.000  H
  H233     1.0000 0.65830  0.10530  0.31500  Biso   1.000  H
  C354     1.0000 0.39600  0.09970  0.49490  Biso   1.000  C
  N10      1.0000 0.35580  0.07390  0.51630  Biso   1.000  N
  C355     1.0000 0.31770  0.10820  0.53240  Biso   1.000  C
  O158     1.0000 0.48500  0.83249  0.45934  Biso   1.000  O
  C356     1.0000 0.93860  0.90890  0.32390  Biso   1.000  C
  H234     1.0000 0.90840  0.92460  0.31410  Biso   1.000  H
  H235     1.0000 0.97010  0.92720  0.32400  Biso   1.000  H
  O159     1.0000 0.74294  0.41199  0.25685  Biso   1.000  O
  O160     1.0000 0.68846  0.44315  0.30328  Biso   1.000  O
  C357     1.0000 0.78110  0.53550  0.08730  Biso   1.000  C
  H236     1.0000 0.77410  0.51140  0.10720  Biso   1.000  H
  H237     1.0000 0.79110  0.52390  0.06220  Biso   1.000  H
  C358     1.0000 0.77690  0.58580  0.09440  Biso   1.000  C
  H238     1.0000 0.78370  0.61090  0.07510  Biso   1.000  H
  C359     1.0000 0.76040  0.60060  0.13600  Biso   1.000  C
  H239     1.0000 0.78320  0.62810  0.14590  Biso   1.000  H
  H240     1.0000 0.72490  0.61430  0.13550  Biso   1.000  H
  C360     1.0000 0.35430  0.02040  0.51870  Biso   1.000  C
  Cu29     1.0000 0.74822  0.34217  0.28115  Biso   1.000  Cu
  Cu30     1.0000 0.68733  0.38076  0.33704  Biso   1.000  Cu
  O161     1.0000 0.89242  0.63941  0.45914  Biso   1.000  O
  O162     1.0000 0.91857  0.53273  0.45891  Biso   1.000  O
  O163     1.0000 0.74399  0.27841  0.31464  Biso   1.000  O
  O164     1.0000 0.75506  0.40203  0.36047  Biso   1.000  O
  O165     1.0000 0.62897  0.35276  0.30564  Biso   1.000  O
  O166     1.0000 0.80730  0.61900  0.45993  Biso   1.000  O
  O167     1.0000 0.80668  0.36573  0.31383  Biso   1.000  O
  C361     1.0000 0.71980  0.27580  0.34729  Biso   1.000  C
  O168     1.0000 0.68091  0.32362  0.25675  Biso   1.000  O
  O169     1.0000 0.69437  0.31238  0.36331  Biso   1.000  O
  O170     1.0000 0.79380  0.09910  0.36855  Biso   1.000  O
  O171     1.0000 0.99450  0.60940  0.50420  Biso   1.000  O
  C362     1.0000 0.63700  0.32960  0.27320  Biso   1.000  C
  O172     1.0000 0.98622  0.39470  0.35986  Biso   1.000  O
  C363     1.0000 0.44710  0.28540  0.27172  Biso   1.000  C
  C364     1.0000 0.87800  0.50780  0.44727  Biso   1.000  C
  C365     1.0000 0.79870  0.39070  0.34586  Biso   1.000  C
  C366     1.0000 0.64480  0.15440  0.44787  Biso   1.000  C
  C367     1.0000 0.72130  0.22420  0.36833  Biso   1.000  C
  C368     1.0000 0.88540  0.46660  0.41613  Biso   1.000  C
  C369     1.0000 0.84630  0.40990  0.36752  Biso   1.000  C
  C370     1.0000 0.49900  0.28680  0.25121  Biso   1.000  C
  C371     1.0000 0.59040  0.30840  0.25193  Biso   1.000  C
  C372     1.0000 0.84110  0.44620  0.39792  Biso   1.000  C
  H241     1.0000 0.80800  0.45690  0.40610  Biso   1.000  H
  C373     1.0000 0.03320  0.41220  0.37730  Biso   1.000  C
  H242     1.0000 0.03410  0.40270  0.40510  Biso   1.000  H
  H243     1.0000 0.03580  0.45010  0.37530  Biso   1.000  H
  C374     1.0000 0.68580  0.16520  0.41698  Biso   1.000  C
  C375     1.0000 0.93970  0.41370  0.37414  Biso   1.000  C
  C376     1.0000 0.50500  0.26340  0.21430  Biso   1.000  C
  H244     1.0000 0.47630  0.24810  0.20180  Biso   1.000  H
  C377     1.0000 0.55380  0.26260  0.19600  Biso   1.000  C
  C378     1.0000 0.59690  0.28430  0.21510  Biso   1.000  C
  H245     1.0000 0.62990  0.28260  0.20350  Biso   1.000  H
  O173     1.0000 0.55900  0.23740  0.16070  Biso   1.000  O
  C379     1.0000 0.75880  0.13830  0.37670  Biso   1.000  C
  C380     1.0000 0.68530  0.21420  0.39818  Biso   1.000  C
  H246     1.0000 0.66110  0.23970  0.40560  Biso   1.000  H
  C381     1.0000 0.54140  0.31040  0.26970  Biso   1.000  C
  H247     1.0000 0.53700  0.32750  0.29380  Biso   1.000  H
  C382     1.0000 0.75770  0.18660  0.35701  Biso   1.000  C
  H248     1.0000 0.78120  0.19350  0.33650  Biso   1.000  H
  C383     1.0000 0.93530  0.45040  0.40433  Biso   1.000  C
  H249     1.0000 0.96510  0.46390  0.41650  Biso   1.000  H
  C384     1.0000 0.72220  0.12740  0.40628  Biso   1.000  C
  H250     1.0000 0.72230  0.09490  0.41880  Biso   1.000  H
  C385     1.0000 0.07740  0.38720  0.35610  Biso   1.000  C
  H251     1.0000 0.11080  0.39540  0.36510  Biso   1.000  H
  C386     1.0000 0.86670  0.06290  0.33580  Biso   1.000  C
  H252     1.0000 0.85320  0.03130  0.34510  Biso   1.000  H
  C387     1.0000 0.89550  0.39360  0.35560  Biso   1.000  C
  H253     1.0000 0.89900  0.36930  0.33520  Biso   1.000  H
  C388     1.0000 0.83080  0.10900  0.33830  Biso   1.000  C
  H254     1.0000 0.85070  0.14040  0.34430  Biso   1.000  H
  H255     1.0000 0.81310  0.11410  0.31310  Biso   1.000  H
  C389     1.0000 0.07480  0.35510  0.32610  Biso   1.000  C
  H256     1.0000 0.04230  0.34560  0.31580  Biso   1.000  H
  H257     1.0000 0.10530  0.34170  0.31500  Biso   1.000  H
  C390     1.0000 0.09970  0.60400  0.49490  Biso   1.000  C
  N11      1.0000 0.07390  0.64420  0.51630  Biso   1.000  N
  C391     1.0000 0.10820  0.68230  0.53240  Biso   1.000  C
  O174     1.0000 0.83249  0.51500  0.45934  Biso   1.000  O
  C392     1.0000 0.90890  0.06140  0.32390  Biso   1.000  C
  H258     1.0000 0.92460  0.09160  0.31410  Biso   1.000  H
  H259     1.0000 0.92720  0.02990  0.32400  Biso   1.000  H
  O175     1.0000 0.41199  0.25706  0.25685  Biso   1.000  O
  O176     1.0000 0.44315  0.31154  0.30328  Biso   1.000  O
  C393     1.0000 0.53550  0.21890  0.08730  Biso   1.000  C
  H260     1.0000 0.51140  0.22590  0.10720  Biso   1.000  H
  H261     1.0000 0.52390  0.20890  0.06220  Biso   1.000  H
  C394     1.0000 0.58580  0.22310  0.09440  Biso   1.000  C
  H262     1.0000 0.61090  0.21630  0.07510  Biso   1.000  H
  C395     1.0000 0.60060  0.23960  0.13600  Biso   1.000  C
  H263     1.0000 0.62810  0.21680  0.14590  Biso   1.000  H
  H264     1.0000 0.61430  0.27510  0.13550  Biso   1.000  H
  C396     1.0000 0.02040  0.64570  0.51870  Biso   1.000  C
  Cu31     1.0000 0.25178  0.65783  0.28115  Biso   1.000  Cu
  Cu32     1.0000 0.31267  0.61924  0.33704  Biso   1.000  Cu
  O177     1.0000 0.10758  0.36059  0.45914  Biso   1.000  O
  O178     1.0000 0.08143  0.46727  0.45891  Biso   1.000  O
  O179     1.0000 0.25601  0.72159  0.31464  Biso   1.000  O
  O180     1.0000 0.24494  0.59797  0.36047  Biso   1.000  O
  O181     1.0000 0.37103  0.64724  0.30564  Biso   1.000  O
  O182     1.0000 0.19270  0.38100  0.45993  Biso   1.000  O
  O183     1.0000 0.19332  0.63427  0.31383  Biso   1.000  O
  C397     1.0000 0.28020  0.72420  0.34729  Biso   1.000  C
  O184     1.0000 0.31909  0.67638  0.25675  Biso   1.000  O
  O185     1.0000 0.30563  0.68762  0.36331  Biso   1.000  O
  O186     1.0000 0.20620  0.90090  0.36855  Biso   1.000  O
  O187     1.0000 0.00550  0.39060  0.50420  Biso   1.000  O
  C398     1.0000 0.36300  0.67040  0.27320  Biso   1.000  C
  O188     1.0000 0.01378  0.60530  0.35986  Biso   1.000  O
  C399     1.0000 0.55290  0.71460  0.27172  Biso   1.000  C
  C400     1.0000 0.12200  0.49220  0.44727  Biso   1.000  C
  C401     1.0000 0.20130  0.60930  0.34586  Biso   1.000  C
  C402     1.0000 0.35520  0.84560  0.44787  Biso   1.000  C
  C403     1.0000 0.27870  0.77580  0.36833  Biso   1.000  C
  C404     1.0000 0.11460  0.53340  0.41613  Biso   1.000  C
  C405     1.0000 0.15370  0.59010  0.36752  Biso   1.000  C
  C406     1.0000 0.50100  0.71320  0.25121  Biso   1.000  C
  C407     1.0000 0.40960  0.69160  0.25193  Biso   1.000  C
  C408     1.0000 0.15890  0.55380  0.39792  Biso   1.000  C
  H265     1.0000 0.19200  0.54310  0.40610  Biso   1.000  H
  C409     1.0000 0.96680  0.58780  0.37730  Biso   1.000  C
  H266     1.0000 0.96590  0.59730  0.40510  Biso   1.000  H
  H267     1.0000 0.96420  0.54990  0.37530  Biso   1.000  H
  C410     1.0000 0.31420  0.83480  0.41698  Biso   1.000  C
  C411     1.0000 0.06030  0.58630  0.37414  Biso   1.000  C
  C412     1.0000 0.49500  0.73660  0.21430  Biso   1.000  C
  H268     1.0000 0.52370  0.75190  0.20180  Biso   1.000  H
  C413     1.0000 0.44620  0.73740  0.19600  Biso   1.000  C
  C414     1.0000 0.40310  0.71570  0.21510  Biso   1.000  C
  H269     1.0000 0.37010  0.71740  0.20350  Biso   1.000  H
  O189     1.0000 0.44100  0.76260  0.16070  Biso   1.000  O
  C415     1.0000 0.24120  0.86170  0.37670  Biso   1.000  C
  C416     1.0000 0.31470  0.78580  0.39818  Biso   1.000  C
  H270     1.0000 0.33890  0.76030  0.40560  Biso   1.000  H
  C417     1.0000 0.45860  0.68960  0.26970  Biso   1.000  C
  H271     1.0000 0.46300  0.67250  0.29380  Biso   1.000  H
  C418     1.0000 0.24230  0.81340  0.35701  Biso   1.000  C
  H272     1.0000 0.21880  0.80650  0.33650  Biso   1.000  H
  C419     1.0000 0.06470  0.54960  0.40433  Biso   1.000  C
  H273     1.0000 0.03490  0.53610  0.41650  Biso   1.000  H
  C420     1.0000 0.27780  0.87260  0.40628  Biso   1.000  C
  H274     1.0000 0.27770  0.90510  0.41880  Biso   1.000  H
  C421     1.0000 0.92260  0.61280  0.35610  Biso   1.000  C
  H275     1.0000 0.88920  0.60460  0.36510  Biso   1.000  H
  C422     1.0000 0.13330  0.93710  0.33580  Biso   1.000  C
  H276     1.0000 0.14680  0.96870  0.34510  Biso   1.000  H
  C423     1.0000 0.10450  0.60640  0.35560  Biso   1.000  C
  H277     1.0000 0.10100  0.63070  0.33520  Biso   1.000  H
  C424     1.0000 0.16920  0.89100  0.33830  Biso   1.000  C
  H278     1.0000 0.14930  0.85960  0.34430  Biso   1.000  H
  H279     1.0000 0.18690  0.88590  0.31310  Biso   1.000  H
  C425     1.0000 0.92520  0.64490  0.32610  Biso   1.000  C
  H280     1.0000 0.95770  0.65440  0.31580  Biso   1.000  H
  H281     1.0000 0.89470  0.65830  0.31500  Biso   1.000  H
  C426     1.0000 0.90030  0.39600  0.49490  Biso   1.000  C
  N12      1.0000 0.92610  0.35580  0.51630  Biso   1.000  N
  C427     1.0000 0.89180  0.31770  0.53240  Biso   1.000  C
  O190     1.0000 0.16751  0.48500  0.45934  Biso   1.000  O
  C428     1.0000 0.09110  0.93860  0.32390  Biso   1.000  C
  H282     1.0000 0.07540  0.90840  0.31410  Biso   1.000  H
  H283     1.0000 0.07280  0.97010  0.32400  Biso   1.000  H
  O191     1.0000 0.58801  0.74294  0.25685  Biso   1.000  O
  O192     1.0000 0.55685  0.68846  0.30328  Biso   1.000  O
  C429     1.0000 0.46450  0.78110  0.08730  Biso   1.000  C
  H284     1.0000 0.48860  0.77410  0.10720  Biso   1.000  H
  H285     1.0000 0.47610  0.79110  0.06220  Biso   1.000  H
  C430     1.0000 0.41420  0.77690  0.09440  Biso   1.000  C
  H286     1.0000 0.38910  0.78370  0.07510  Biso   1.000  H
  C431     1.0000 0.39940  0.76040  0.13600  Biso   1.000  C
  H287     1.0000 0.37190  0.78320  0.14590  Biso   1.000  H
  H288     1.0000 0.38570  0.72490  0.13550  Biso   1.000  H
  C432     1.0000 0.97960  0.35430  0.51870  Biso   1.000  C
  Cu33     1.0000 0.65783  0.74822  0.71885  Biso   1.000  Cu
  Cu34     1.0000 0.61924  0.68733  0.66296  Biso   1.000  Cu
  O193     1.0000 0.36059  0.89242  0.54086  Biso   1.000  O
  O194     1.0000 0.46727  0.91857  0.54109  Biso   1.000  O
  O195     1.0000 0.72159  0.74399  0.68536  Biso   1.000  O
  O196     1.0000 0.59797  0.75506  0.63953  Biso   1.000  O
  O197     1.0000 0.64724  0.62897  0.69436  Biso   1.000  O
  O198     1.0000 0.38100  0.80730  0.54007  Biso   1.000  O
  O199     1.0000 0.63427  0.80668  0.68617  Biso   1.000  O
  C433     1.0000 0.72420  0.71980  0.65271  Biso   1.000  C
  O200     1.0000 0.67638  0.68091  0.74325  Biso   1.000  O
  O201     1.0000 0.68762  0.69437  0.63669  Biso   1.000  O
  O202     1.0000 0.90090  0.79380  0.63145  Biso   1.000  O
  O203     1.0000 0.39060  0.99450  0.49580  Biso   1.000  O
  C434     1.0000 0.67040  0.63700  0.72680  Biso   1.000  C
  O204     1.0000 0.60530  0.98622  0.64014  Biso   1.000  O
  C435     1.0000 0.71460  0.44710  0.72828  Biso   1.000  C
  C436     1.0000 0.49220  0.87800  0.55273  Biso   1.000  C
  C437     1.0000 0.60930  0.79870  0.65414  Biso   1.000  C
  C438     1.0000 0.84560  0.64480  0.55213  Biso   1.000  C
  C439     1.0000 0.77580  0.72130  0.63167  Biso   1.000  C
  C440     1.0000 0.53340  0.88540  0.58387  Biso   1.000  C
  C441     1.0000 0.59010  0.84630  0.63248  Biso   1.000  C
  C442     1.0000 0.71320  0.49900  0.74879  Biso   1.000  C
  C443     1.0000 0.69160  0.59040  0.74807  Biso   1.000  C
  C444     1.0000 0.55380  0.84110  0.60208  Biso   1.000  C
  H289     1.0000 0.54310  0.80800  0.59390  Biso   1.000  H
  C445     1.0000 0.58780  0.03320  0.62270  Biso   1.000  C
  H290     1.0000 0.59730  0.03410  0.59490  Biso   1.000  H
  H291     1.0000 0.54990  0.03580  0.62470  Biso   1.000  H
  C446     1.0000 0.83480  0.68580  0.58302  Biso   1.000  C
  C447     1.0000 0.58630  0.93970  0.62586  Biso   1.000  C
  C448     1.0000 0.73660  0.50500  0.78570  Biso   1.000  C
  H292     1.0000 0.75190  0.47630  0.79820  Biso   1.000  H
  C449     1.0000 0.73740  0.55380  0.80400  Biso   1.000  C
  C450     1.0000 0.71570  0.59690  0.78490  Biso   1.000  C
  H293     1.0000 0.71740  0.62990  0.79650  Biso   1.000  H
  O205     1.0000 0.76260  0.55900  0.83930  Biso   1.000  O
  C451     1.0000 0.86170  0.75880  0.62330  Biso   1.000  C
  C452     1.0000 0.78580  0.68530  0.60182  Biso   1.000  C
  H294     1.0000 0.76030  0.66110  0.59440  Biso   1.000  H
  C453     1.0000 0.68960  0.54140  0.73030  Biso   1.000  C
  H295     1.0000 0.67250  0.53700  0.70620  Biso   1.000  H
  C454     1.0000 0.81340  0.75770  0.64299  Biso   1.000  C
  H296     1.0000 0.80650  0.78120  0.66350  Biso   1.000  H
  C455     1.0000 0.54960  0.93530  0.59567  Biso   1.000  C
  H297     1.0000 0.53610  0.96510  0.58350  Biso   1.000  H
  C456     1.0000 0.87260  0.72220  0.59372  Biso   1.000  C
  H298     1.0000 0.90510  0.72230  0.58120  Biso   1.000  H
  C457     1.0000 0.61280  0.07740  0.64390  Biso   1.000  C
  H299     1.0000 0.60460  0.11080  0.63490  Biso   1.000  H
  C458     1.0000 0.93710  0.86670  0.66420  Biso   1.000  C
  H300     1.0000 0.96870  0.85320  0.65490  Biso   1.000  H
  C459     1.0000 0.60640  0.89550  0.64440  Biso   1.000  C
  H301     1.0000 0.63070  0.89900  0.66480  Biso   1.000  H
  C460     1.0000 0.89100  0.83080  0.66170  Biso   1.000  C
  H302     1.0000 0.85960  0.85070  0.65570  Biso   1.000  H
  H303     1.0000 0.88590  0.81310  0.68690  Biso   1.000  H
  C461     1.0000 0.64490  0.07480  0.67390  Biso   1.000  C
  H304     1.0000 0.65440  0.04230  0.68420  Biso   1.000  H
  H305     1.0000 0.65830  0.10530  0.68500  Biso   1.000  H
  C462     1.0000 0.39600  0.09970  0.50510  Biso   1.000  C
  N13      1.0000 0.35580  0.07390  0.48370  Biso   1.000  N
  C463     1.0000 0.31770  0.10820  0.46760  Biso   1.000  C
  O206     1.0000 0.48500  0.83249  0.54066  Biso   1.000  O
  C464     1.0000 0.93860  0.90890  0.67610  Biso   1.000  C
  H306     1.0000 0.90840  0.92460  0.68590  Biso   1.000  H
  H307     1.0000 0.97010  0.92720  0.67600  Biso   1.000  H
  O207     1.0000 0.74294  0.41199  0.74315  Biso   1.000  O
  O208     1.0000 0.68846  0.44315  0.69672  Biso   1.000  O
  C465     1.0000 0.78110  0.53550  0.91270  Biso   1.000  C
  H308     1.0000 0.77410  0.51140  0.89280  Biso   1.000  H
  H309     1.0000 0.79110  0.52390  0.93780  Biso   1.000  H
  C466     1.0000 0.77690  0.58580  0.90560  Biso   1.000  C
  H310     1.0000 0.78370  0.61090  0.92490  Biso   1.000  H
  C467     1.0000 0.76040  0.60060  0.86400  Biso   1.000  C
  H311     1.0000 0.78320  0.62810  0.85410  Biso   1.000  H
  H312     1.0000 0.72490  0.61430  0.86450  Biso   1.000  H
  C468     1.0000 0.35430  0.02040  0.48130  Biso   1.000  C
  Cu35     1.0000 0.34217  0.25178  0.71885  Biso   1.000  Cu
  Cu36     1.0000 0.38076  0.31267  0.66296  Biso   1.000  Cu
  O209     1.0000 0.63941  0.10758  0.54086  Biso   1.000  O
  O210     1.0000 0.53273  0.08143  0.54109  Biso   1.000  O
  O211     1.0000 0.27841  0.25601  0.68536  Biso   1.000  O
  O212     1.0000 0.40203  0.24494  0.63953  Biso   1.000  O
  O213     1.0000 0.35276  0.37103  0.69436  Biso   1.000  O
  O214     1.0000 0.61900  0.19270  0.54007  Biso   1.000  O
  O215     1.0000 0.36573  0.19332  0.68617  Biso   1.000  O
  C469     1.0000 0.27580  0.28020  0.65271  Biso   1.000  C
  O216     1.0000 0.32362  0.31909  0.74325  Biso   1.000  O
  O217     1.0000 0.31238  0.30563  0.63669  Biso   1.000  O
  O218     1.0000 0.09910  0.20620  0.63145  Biso   1.000  O
  O219     1.0000 0.60940  0.00550  0.49580  Biso   1.000  O
  C470     1.0000 0.32960  0.36300  0.72680  Biso   1.000  C
  O220     1.0000 0.39470  0.01378  0.64014  Biso   1.000  O
  C471     1.0000 0.28540  0.55290  0.72828  Biso   1.000  C
  C472     1.0000 0.50780  0.12200  0.55273  Biso   1.000  C
  C473     1.0000 0.39070  0.20130  0.65414  Biso   1.000  C
  C474     1.0000 0.15440  0.35520  0.55213  Biso   1.000  C
  C475     1.0000 0.22420  0.27870  0.63167  Biso   1.000  C
  C476     1.0000 0.46660  0.11460  0.58387  Biso   1.000  C
  C477     1.0000 0.40990  0.15370  0.63248  Biso   1.000  C
  C478     1.0000 0.28680  0.50100  0.74879  Biso   1.000  C
  C479     1.0000 0.30840  0.40960  0.74807  Biso   1.000  C
  C480     1.0000 0.44620  0.15890  0.60208  Biso   1.000  C
  H313     1.0000 0.45690  0.19200  0.59390  Biso   1.000  H
  C481     1.0000 0.41220  0.96680  0.62270  Biso   1.000  C
  H314     1.0000 0.40270  0.96590  0.59490  Biso   1.000  H
  H315     1.0000 0.45010  0.96420  0.62470  Biso   1.000  H
  C482     1.0000 0.16520  0.31420  0.58302  Biso   1.000  C
  C483     1.0000 0.41370  0.06030  0.62586  Biso   1.000  C
  C484     1.0000 0.26340  0.49500  0.78570  Biso   1.000  C
  H316     1.0000 0.24810  0.52370  0.79820  Biso   1.000  H
  C485     1.0000 0.26260  0.44620  0.80400  Biso   1.000  C
  C486     1.0000 0.28430  0.40310  0.78490  Biso   1.000  C
  H317     1.0000 0.28260  0.37010  0.79650  Biso   1.000  H
  O221     1.0000 0.23740  0.44100  0.83930  Biso   1.000  O
  C487     1.0000 0.13830  0.24120  0.62330  Biso   1.000  C
  C488     1.0000 0.21420  0.31470  0.60182  Biso   1.000  C
  H318     1.0000 0.23970  0.33890  0.59440  Biso   1.000  H
  C489     1.0000 0.31040  0.45860  0.73030  Biso   1.000  C
  H319     1.0000 0.32750  0.46300  0.70620  Biso   1.000  H
  C490     1.0000 0.18660  0.24230  0.64299  Biso   1.000  C
  H320     1.0000 0.19350  0.21880  0.66350  Biso   1.000  H
  C491     1.0000 0.45040  0.06470  0.59567  Biso   1.000  C
  H321     1.0000 0.46390  0.03490  0.58350  Biso   1.000  H
  C492     1.0000 0.12740  0.27780  0.59372  Biso   1.000  C
  H322     1.0000 0.09490  0.27770  0.58120  Biso   1.000  H
  C493     1.0000 0.38720  0.92260  0.64390  Biso   1.000  C
  H323     1.0000 0.39540  0.88920  0.63490  Biso   1.000  H
  C494     1.0000 0.06290  0.13330  0.66420  Biso   1.000  C
  H324     1.0000 0.03130  0.14680  0.65490  Biso   1.000  H
  C495     1.0000 0.39360  0.10450  0.64440  Biso   1.000  C
  H325     1.0000 0.36930  0.10100  0.66480  Biso   1.000  H
  C496     1.0000 0.10900  0.16920  0.66170  Biso   1.000  C
  H326     1.0000 0.14040  0.14930  0.65570  Biso   1.000  H
  H327     1.0000 0.11410  0.18690  0.68690  Biso   1.000  H
  C497     1.0000 0.35510  0.92520  0.67390  Biso   1.000  C
  H328     1.0000 0.34560  0.95770  0.68420  Biso   1.000  H
  H329     1.0000 0.34170  0.89470  0.68500  Biso   1.000  H
  C498     1.0000 0.60400  0.90030  0.50510  Biso   1.000  C
  N14      1.0000 0.64420  0.92610  0.48370  Biso   1.000  N
  C499     1.0000 0.68230  0.89180  0.46760  Biso   1.000  C
  O222     1.0000 0.51500  0.16751  0.54066  Biso   1.000  O
  C500     1.0000 0.06140  0.09110  0.67610  Biso   1.000  C
  H330     1.0000 0.09160  0.07540  0.68590  Biso   1.000  H
  H331     1.0000 0.02990  0.07280  0.67600  Biso   1.000  H
  O223     1.0000 0.25706  0.58801  0.74315  Biso   1.000  O
  O224     1.0000 0.31154  0.55685  0.69672  Biso   1.000  O
  C501     1.0000 0.21890  0.46450  0.91270  Biso   1.000  C
  H332     1.0000 0.22590  0.48860  0.89280  Biso   1.000  H
  H333     1.0000 0.20890  0.47610  0.93780  Biso   1.000  H
  C502     1.0000 0.22310  0.41420  0.90560  Biso   1.000  C
  H334     1.0000 0.21630  0.38910  0.92490  Biso   1.000  H
  C503     1.0000 0.23960  0.39940  0.86400  Biso   1.000  C
  H335     1.0000 0.21680  0.37190  0.85410  Biso   1.000  H
  H336     1.0000 0.27510  0.38570  0.86450  Biso   1.000  H
  C504     1.0000 0.64570  0.97960  0.48130  Biso   1.000  C
  Cu37     1.0000 0.25178  0.65783  0.71885  Biso   1.000  Cu
  Cu38     1.0000 0.31267  0.61924  0.66296  Biso   1.000  Cu
  O225     1.0000 0.10758  0.36059  0.54086  Biso   1.000  O
  O226     1.0000 0.08143  0.46727  0.54109  Biso   1.000  O
  O227     1.0000 0.25601  0.72159  0.68536  Biso   1.000  O
  O228     1.0000 0.24494  0.59797  0.63953  Biso   1.000  O
  O229     1.0000 0.37103  0.64724  0.69436  Biso   1.000  O
  O230     1.0000 0.19270  0.38100  0.54007  Biso   1.000  O
  O231     1.0000 0.19332  0.63427  0.68617  Biso   1.000  O
  C505     1.0000 0.28020  0.72420  0.65271  Biso   1.000  C
  O232     1.0000 0.31909  0.67638  0.74325  Biso   1.000  O
  O233     1.0000 0.30563  0.68762  0.63669  Biso   1.000  O
  O234     1.0000 0.20620  0.90090  0.63145  Biso   1.000  O
  O235     1.0000 0.00550  0.39060  0.49580  Biso   1.000  O
  C506     1.0000 0.36300  0.67040  0.72680  Biso   1.000  C
  O236     1.0000 0.01378  0.60530  0.64014  Biso   1.000  O
  C507     1.0000 0.55290  0.71460  0.72828  Biso   1.000  C
  C508     1.0000 0.12200  0.49220  0.55273  Biso   1.000  C
  C509     1.0000 0.20130  0.60930  0.65414  Biso   1.000  C
  C510     1.0000 0.35520  0.84560  0.55213  Biso   1.000  C
  C511     1.0000 0.27870  0.77580  0.63167  Biso   1.000  C
  C512     1.0000 0.11460  0.53340  0.58387  Biso   1.000  C
  C513     1.0000 0.15370  0.59010  0.63248  Biso   1.000  C
  C514     1.0000 0.50100  0.71320  0.74879  Biso   1.000  C
  C515     1.0000 0.40960  0.69160  0.74807  Biso   1.000  C
  C516     1.0000 0.15890  0.55380  0.60208  Biso   1.000  C
  H337     1.0000 0.19200  0.54310  0.59390  Biso   1.000  H
  C517     1.0000 0.96680  0.58780  0.62270  Biso   1.000  C
  H338     1.0000 0.96590  0.59730  0.59490  Biso   1.000  H
  H339     1.0000 0.96420  0.54990  0.62470  Biso   1.000  H
  C518     1.0000 0.31420  0.83480  0.58302  Biso   1.000  C
  C519     1.0000 0.06030  0.58630  0.62586  Biso   1.000  C
  C520     1.0000 0.49500  0.73660  0.78570  Biso   1.000  C
  H340     1.0000 0.52370  0.75190  0.79820  Biso   1.000  H
  C521     1.0000 0.44620  0.73740  0.80400  Biso   1.000  C
  C522     1.0000 0.40310  0.71570  0.78490  Biso   1.000  C
  H341     1.0000 0.37010  0.71740  0.79650  Biso   1.000  H
  O237     1.0000 0.44100  0.76260  0.83930  Biso   1.000  O
  C523     1.0000 0.24120  0.86170  0.62330  Biso   1.000  C
  C524     1.0000 0.31470  0.78580  0.60182  Biso   1.000  C
  H342     1.0000 0.33890  0.76030  0.59440  Biso   1.000  H
  C525     1.0000 0.45860  0.68960  0.73030  Biso   1.000  C
  H343     1.0000 0.46300  0.67250  0.70620  Biso   1.000  H
  C526     1.0000 0.24230  0.81340  0.64299  Biso   1.000  C
  H344     1.0000 0.21880  0.80650  0.66350  Biso   1.000  H
  C527     1.0000 0.06470  0.54960  0.59567  Biso   1.000  C
  H345     1.0000 0.03490  0.53610  0.58350  Biso   1.000  H
  C528     1.0000 0.27780  0.87260  0.59372  Biso   1.000  C
  H346     1.0000 0.27770  0.90510  0.58120  Biso   1.000  H
  C529     1.0000 0.92260  0.61280  0.64390  Biso   1.000  C
  H347     1.0000 0.88920  0.60460  0.63490  Biso   1.000  H
  C530     1.0000 0.13330  0.93710  0.66420  Biso   1.000  C
  H348     1.0000 0.14680  0.96870  0.65490  Biso   1.000  H
  C531     1.0000 0.10450  0.60640  0.64440  Biso   1.000  C
  H349     1.0000 0.10100  0.63070  0.66480  Biso   1.000  H
  C532     1.0000 0.16920  0.89100  0.66170  Biso   1.000  C
  H350     1.0000 0.14930  0.85960  0.65570  Biso   1.000  H
  H351     1.0000 0.18690  0.88590  0.68690  Biso   1.000  H
  C533     1.0000 0.92520  0.64490  0.67390  Biso   1.000  C
  H352     1.0000 0.95770  0.65440  0.68420  Biso   1.000  H
  H353     1.0000 0.89470  0.65830  0.68500  Biso   1.000  H
  C534     1.0000 0.90030  0.39600  0.50510  Biso   1.000  C
  N15      1.0000 0.92610  0.35580  0.48370  Biso   1.000  N
  C535     1.0000 0.89180  0.31770  0.46760  Biso   1.000  C
  O238     1.0000 0.16751  0.48500  0.54066  Biso   1.000  O
  C536     1.0000 0.09110  0.93860  0.67610  Biso   1.000  C
  H354     1.0000 0.07540  0.90840  0.68590  Biso   1.000  H
  H355     1.0000 0.07280  0.97010  0.67600  Biso   1.000  H
  O239     1.0000 0.58801  0.74294  0.74315  Biso   1.000  O
  O240     1.0000 0.55685  0.68846  0.69672  Biso   1.000  O
  C537     1.0000 0.46450  0.78110  0.91270  Biso   1.000  C
  H356     1.0000 0.48860  0.77410  0.89280  Biso   1.000  H
  H357     1.0000 0.47610  0.79110  0.93780  Biso   1.000  H
  C538     1.0000 0.41420  0.77690  0.90560  Biso   1.000  C
  H358     1.0000 0.38910  0.78370  0.92490  Biso   1.000  H
  C539     1.0000 0.39940  0.76040  0.86400  Biso   1.000  C
  H359     1.0000 0.37190  0.78320  0.85410  Biso   1.000  H
  H360     1.0000 0.38570  0.72490  0.86450  Biso   1.000  H
  C540     1.0000 0.97960  0.35430  0.48130  Biso   1.000  C
  Cu39     1.0000 0.74822  0.34217  0.71885  Biso   1.000  Cu
  Cu40     1.0000 0.68733  0.38076  0.66296  Biso   1.000  Cu
  O241     1.0000 0.89242  0.63941  0.54086  Biso   1.000  O
  O242     1.0000 0.91857  0.53273  0.54109  Biso   1.000  O
  O243     1.0000 0.74399  0.27841  0.68536  Biso   1.000  O
  O244     1.0000 0.75506  0.40203  0.63953  Biso   1.000  O
  O245     1.0000 0.62897  0.35276  0.69436  Biso   1.000  O
  O246     1.0000 0.80730  0.61900  0.54007  Biso   1.000  O
  O247     1.0000 0.80668  0.36573  0.68617  Biso   1.000  O
  C541     1.0000 0.71980  0.27580  0.65271  Biso   1.000  C
  O248     1.0000 0.68091  0.32362  0.74325  Biso   1.000  O
  O249     1.0000 0.69437  0.31238  0.63669  Biso   1.000  O
  O250     1.0000 0.79380  0.09910  0.63145  Biso   1.000  O
  O251     1.0000 0.99450  0.60940  0.49580  Biso   1.000  O
  C542     1.0000 0.63700  0.32960  0.72680  Biso   1.000  C
  O252     1.0000 0.98622  0.39470  0.64014  Biso   1.000  O
  C543     1.0000 0.44710  0.28540  0.72828  Biso   1.000  C
  C544     1.0000 0.87800  0.50780  0.55273  Biso   1.000  C
  C545     1.0000 0.79870  0.39070  0.65414  Biso   1.000  C
  C546     1.0000 0.64480  0.15440  0.55213  Biso   1.000  C
  C547     1.0000 0.72130  0.22420  0.63167  Biso   1.000  C
  C548     1.0000 0.88540  0.46660  0.58387  Biso   1.000  C
  C549     1.0000 0.84630  0.40990  0.63248  Biso   1.000  C
  C550     1.0000 0.49900  0.28680  0.74879  Biso   1.000  C
  C551     1.0000 0.59040  0.30840  0.74807  Biso   1.000  C
  C552     1.0000 0.84110  0.44620  0.60208  Biso   1.000  C
  H361     1.0000 0.80800  0.45690  0.59390  Biso   1.000  H
  C553     1.0000 0.03320  0.41220  0.62270  Biso   1.000  C
  H362     1.0000 0.03410  0.40270  0.59490  Biso   1.000  H
  H363     1.0000 0.03580  0.45010  0.62470  Biso   1.000  H
  C554     1.0000 0.68580  0.16520  0.58302  Biso   1.000  C
  C555     1.0000 0.93970  0.41370  0.62586  Biso   1.000  C
  C556     1.0000 0.50500  0.26340  0.78570  Biso   1.000  C
  H364     1.0000 0.47630  0.24810  0.79820  Biso   1.000  H
  C557     1.0000 0.55380  0.26260  0.80400  Biso   1.000  C
  C558     1.0000 0.59690  0.28430  0.78490  Biso   1.000  C
  H365     1.0000 0.62990  0.28260  0.79650  Biso   1.000  H
  O253     1.0000 0.55900  0.23740  0.83930  Biso   1.000  O
  C559     1.0000 0.75880  0.13830  0.62330  Biso   1.000  C
  C560     1.0000 0.68530  0.21420  0.60182  Biso   1.000  C
  H366     1.0000 0.66110  0.23970  0.59440  Biso   1.000  H
  C561     1.0000 0.54140  0.31040  0.73030  Biso   1.000  C
  H367     1.0000 0.53700  0.32750  0.70620  Biso   1.000  H
  C562     1.0000 0.75770  0.18660  0.64299  Biso   1.000  C
  H368     1.0000 0.78120  0.19350  0.66350  Biso   1.000  H
  C563     1.0000 0.93530  0.45040  0.59567  Biso   1.000  C
  H369     1.0000 0.96510  0.46390  0.58350  Biso   1.000  H
  C564     1.0000 0.72220  0.12740  0.59372  Biso   1.000  C
  H370     1.0000 0.72230  0.09490  0.58120  Biso   1.000  H
  C565     1.0000 0.07740  0.38720  0.64390  Biso   1.000  C
  H371     1.0000 0.11080  0.39540  0.63490  Biso   1.000  H
  C566     1.0000 0.86670  0.06290  0.66420  Biso   1.000  C
  H372     1.0000 0.85320  0.03130  0.65490  Biso   1.000  H
  C567     1.0000 0.89550  0.39360  0.64440  Biso   1.000  C
  H373     1.0000 0.89900  0.36930  0.66480  Biso   1.000  H
  C568     1.0000 0.83080  0.10900  0.66170  Biso   1.000  C
  H374     1.0000 0.85070  0.14040  0.65570  Biso   1.000  H
  H375     1.0000 0.81310  0.11410  0.68690  Biso   1.000  H
  C569     1.0000 0.07480  0.35510  0.67390  Biso   1.000  C
  H376     1.0000 0.04230  0.34560  0.68420  Biso   1.000  H
  H377     1.0000 0.10530  0.34170  0.68500  Biso   1.000  H
  C570     1.0000 0.09970  0.60400  0.50510  Biso   1.000  C
  N16      1.0000 0.07390  0.64420  0.48370  Biso   1.000  N
  C571     1.0000 0.10820  0.68230  0.46760  Biso   1.000  C
  O254     1.0000 0.83249  0.51500  0.54066  Biso   1.000  O
  C572     1.0000 0.90890  0.06140  0.67610  Biso   1.000  C
  H378     1.0000 0.92460  0.09160  0.68590  Biso   1.000  H
  H379     1.0000 0.92720  0.02990  0.67600  Biso   1.000  H
  O255     1.0000 0.41199  0.25706  0.74315  Biso   1.000  O
  O256     1.0000 0.44315  0.31154  0.69672  Biso   1.000  O
  C573     1.0000 0.53550  0.21890  0.91270  Biso   1.000  C
  H380     1.0000 0.51140  0.22590  0.89280  Biso   1.000  H
  H381     1.0000 0.52390  0.20890  0.93780  Biso   1.000  H
  C574     1.0000 0.58580  0.22310  0.90560  Biso   1.000  C
  H382     1.0000 0.61090  0.21630  0.92490  Biso   1.000  H
  C575     1.0000 0.60060  0.23960  0.86400  Biso   1.000  C
  H383     1.0000 0.62810  0.21680  0.85410  Biso   1.000  H
  H384     1.0000 0.61430  0.27510  0.86450  Biso   1.000  H
  C576     1.0000 0.02040  0.64570  0.48130  Biso   1.000  C
  Cu41     1.0000 0.58787  0.08628  0.50000  Biso   1.000  Cu
  Cu42     1.0000 0.56485  0.18745  0.50000  Biso   1.000  Cu
  Cu43     1.0000 0.41213  0.91372  0.50000  Biso   1.000  Cu
  Cu44     1.0000 0.43515  0.81255  0.50000  Biso   1.000  Cu
  Cu45     1.0000 0.91372  0.58787  0.50000  Biso   1.000  Cu
  Cu46     1.0000 0.81255  0.56485  0.50000  Biso   1.000  Cu
  Cu47     1.0000 0.08628  0.41213  0.50000  Biso   1.000  Cu
  Cu48     1.0000 0.18745  0.43515  0.50000  Biso   1.000  Cu
