data_image0
_cell_length_a       18.924
_cell_length_b       21.154
_cell_length_c       23.164
_cell_angle_alpha    90
_cell_angle_beta     109.343
_cell_angle_gamma    90

_symmetry_space_group_name_H-M    "P 1"
_symmetry_int_tables_number       1

loop_
  _symmetry_equiv_pos_as_xyz
  'x, y, z'

loop_
  _atom_site_label
  _atom_site_occupancy
  _atom_site_fract_x
  _atom_site_fract_y
  _atom_site_fract_z
  _atom_site_thermal_displace_type
  _atom_site_B_iso_or_equiv
  _atom_site_type_symbol
  Gd1      1.0000 0.24290  0.28861  0.35325  Biso   1.000  Gd
  C1       1.0000 0.14500  0.44890  0.13310  Biso   1.000  C
  C2       1.0000 0.07280  0.41800  0.13920  Biso   1.000  C
  C3       1.0000 0.09000  0.38340  0.04860  Biso   1.000  C
  C4       1.0000 0.05520  0.35430  0.22770  Biso   1.000  C
  H1       1.0000 0.08130  0.35520  0.27150  Biso   1.000  H
  H2       1.0000 0.01000  0.37930  0.21970  Biso   1.000  H
  C5       1.0000 0.98040  0.33900  0.06850  Biso   1.000  C
  H3       1.0000 0.96570  0.33120  0.02480  Biso   1.000  H
  H4       1.0000 0.94130  0.36420  0.07570  Biso   1.000  H
  C6       1.0000 0.07670  0.24040  0.23900  Biso   1.000  C
  C7       1.0000 0.97070  0.27090  0.15760  Biso   1.000  C
  C8       1.0000 0.97240  0.19630  0.16520  Biso   1.000  C
  C9       1.0000 0.98390  0.22340  0.07060  Biso   1.000  C
  C10      1.0000 0.06940  0.12560  0.24390  Biso   1.000  C
  H5       1.0000 0.10490  0.13360  0.28440  Biso   1.000  H
  H6       1.0000 0.02740  0.10270  0.24900  Biso   1.000  H
  C11      1.0000 0.96580  0.10930  0.08550  Biso   1.000  C
  H7       1.0000 0.94580  0.10940  0.04120  Biso   1.000  H
  H8       1.0000 0.92870  0.08980  0.10030  Biso   1.000  H
  C12      1.0000 0.17980  0.07960  0.22960  Biso   1.000  C
  C13      1.0000 0.06540  0.04080  0.16460  Biso   1.000  C
  C14      1.0000 0.13100  0.00020  0.15660  Biso   1.000  C
  C15      1.0000 0.06610  0.05030  0.06360  Biso   1.000  C
  C16      1.0000 0.27140  0.00370  0.21930  Biso   1.000  C
  H9       1.0000 0.26690  0.95820  0.22170  Biso   1.000  H
  H10      1.0000 0.29730  0.01910  0.26030  Biso   1.000  H
  C17      1.0000 0.16820  0.98070  0.06090  Biso   1.000  C
  H11      1.0000 0.17310  0.93610  0.07140  Biso   1.000  H
  H12      1.0000 0.14230  0.98370  0.01720  Biso   1.000  H
  C18      1.0000 0.37910  0.05370  0.20270  Biso   1.000  C
  C19      1.0000 0.30830  0.98700  0.12270  Biso   1.000  C
  C20      1.0000 0.37370  0.01800  0.10480  Biso   1.000  C
  C21      1.0000 0.25770  0.04970  0.03630  Biso   1.000  C
  C22      1.0000 0.48380  0.08690  0.16970  Biso   1.000  C
  H13      1.0000 0.51010  0.08960  0.21340  Biso   1.000  H
  H14      1.0000 0.51520  0.06300  0.15190  Biso   1.000  H
  C23      1.0000 0.36670  0.09340  0.01560  Biso   1.000  C
  H15      1.0000 0.33010  0.09770  0.97500  Biso   1.000  H
  H16      1.0000 0.40760  0.06790  0.01200  Biso   1.000  H
  C24      1.0000 0.47660  0.20130  0.17980  Biso   1.000  C
  C25      1.0000 0.46980  0.16590  0.08290  Biso   1.000  C
  C26      1.0000 0.47660  0.23980  0.08570  Biso   1.000  C
  C27      1.0000 0.36660  0.20970  0.00760  Biso   1.000  C
  C28      1.0000 0.48470  0.31580  0.17470  Biso   1.000  C
  H17      1.0000 0.50230  0.30990  0.21880  Biso   1.000  H
  H18      1.0000 0.52410  0.33680  0.16400  Biso   1.000  H
  C29      1.0000 0.39530  0.32410  0.01420  Biso   1.000  C
  H19      1.0000 0.36470  0.32400  0.97130  Biso   1.000  H
  H20      1.0000 0.44240  0.34450  0.01760  Biso   1.000  H
  C30      1.0000 0.37960  0.36640  0.19680  Biso   1.000  C
  C31      1.0000 0.39730  0.39590  0.10430  Biso   1.000  C
  C32      1.0000 0.33150  0.43660  0.11410  Biso   1.000  C
  C33      1.0000 0.28470  0.37610  0.02450  Biso   1.000  C
  C34      1.0000 0.28260  0.43920  0.20510  Biso   1.000  C
  H21      1.0000 0.28420  0.48490  0.20260  Biso   1.000  H
  H22      1.0000 0.30430  0.42770  0.24790  Biso   1.000  H
  C35      1.0000 0.19490  0.44920  0.04290  Biso   1.000  C
  H23      1.0000 0.17170  0.44280  0.99920  Biso   1.000  H
  H24      1.0000 0.20250  0.49430  0.04980  Biso   1.000  H
  C36      1.0000 0.14390  0.52070  0.13780  Biso   1.000  C
  H25      1.0000 0.14620  0.53240  0.17890  Biso   1.000  H
  H26      1.0000 0.18780  0.53790  0.13080  Biso   1.000  H
  C37      1.0000 0.07400  0.54980  0.09210  Biso   1.000  C
  H27      1.0000 0.07970  0.55070  0.05200  Biso   1.000  H
  H28      1.0000 0.06900  0.59310  0.10390  Biso   1.000  H
  C38      1.0000 0.00260  0.51320  0.08810  Biso   1.000  C
  H29      1.0000 0.96380  0.54300  0.08840  Biso   1.000  H
  H30      1.0000 0.98540  0.49050  0.04960  Biso   1.000  H
  C39      1.0000 0.01390  0.46660  0.14010  Biso   1.000  C
  H31      1.0000 0.96690  0.44550  0.13590  Biso   1.000  H
  H32      1.0000 0.02980  0.48900  0.17880  Biso   1.000  H
  C40      1.0000 0.89780  0.29940  0.15820  Biso   1.000  C
  H33      1.0000 0.85770  0.28590  0.12190  Biso   1.000  H
  H34      1.0000 0.90120  0.34510  0.15700  Biso   1.000  H
  C41      1.0000 0.87930  0.27970  0.21550  Biso   1.000  C
  H35      1.0000 0.91000  0.30420  0.25010  Biso   1.000  H
  H36      1.0000 0.82740  0.28970  0.20930  Biso   1.000  H
  C42      1.0000 0.89200  0.21020  0.23050  Biso   1.000  C
  H37      1.0000 0.84880  0.19320  0.23890  Biso   1.000  H
  H38      1.0000 0.93510  0.20550  0.26730  Biso   1.000  H
  C43      1.0000 0.90490  0.17200  0.17900  Biso   1.000  C
  H39      1.0000 0.91240  0.12790  0.19090  Biso   1.000  H
  H40      1.0000 0.86110  0.17500  0.14260  Biso   1.000  H
  C44      1.0000 0.00910  0.00130  0.18220  Biso   1.000  C
  H41      1.0000 0.96630  0.02730  0.18090  Biso   1.000  H
  H42      1.0000 0.03170  0.98590  0.22360  Biso   1.000  H
  C45      1.0000 0.98310  0.94540  0.13840  Biso   1.000  C
  H43      1.0000 0.95560  0.96130  0.09790  Biso   1.000  H
  H44      1.0000 0.94910  0.91960  0.15180  Biso   1.000  H
  C46      1.0000 0.04870  0.90360  0.13470  Biso   1.000  C
  H45      1.0000 0.04380  0.86160  0.14970  Biso   1.000  H
  H46      1.0000 0.04580  0.89970  0.09220  Biso   1.000  H
  C47      1.0000 0.12470  0.93060  0.17160  Biso   1.000  C
  H47      1.0000 0.16370  0.90670  0.16270  Biso   1.000  H
  H48      1.0000 0.13210  0.92620  0.21480  Biso   1.000  H
  C48      1.0000 0.31690  0.91540  0.12910  Biso   1.000  C
  H49      1.0000 0.28260  0.89900  0.14860  Biso   1.000  H
  H50      1.0000 0.30450  0.89640  0.08890  Biso   1.000  H
  C49      1.0000 0.39700  0.89820  0.16720  Biso   1.000  C
  H51      1.0000 0.40080  0.85270  0.17220  Biso   1.000  H
  H52      1.0000 0.40880  0.91690  0.20750  Biso   1.000  H
  C50      1.0000 0.45420  0.92090  0.13790  Biso   1.000  C
  H53      1.0000 0.49660  0.93960  0.16920  Biso   1.000  H
  H54      1.0000 0.47230  0.88480  0.12100  Biso   1.000  H
  C51      1.0000 0.42100  0.96940  0.08720  Biso   1.000  C
  H55      1.0000 0.46130  0.99060  0.07780  Biso   1.000  H
  H56      1.0000 0.39050  0.94760  0.05050  Biso   1.000  H
  C52      1.0000 0.53150  0.13540  0.06310  Biso   1.000  C
  H57      1.0000 0.57890  0.13830  0.09620  Biso   1.000  H
  H58      1.0000 0.52010  0.09100  0.05430  Biso   1.000  H
  C53      1.0000 0.53800  0.16810  0.00670  Biso   1.000  C
  H59      1.0000 0.49100  0.16380  0.97330  Biso   1.000  H
  H60      1.0000 0.57670  0.14760  0.99460  Biso   1.000  H
  C54      1.0000 0.55710  0.23910  0.01830  Biso   1.000  C
  H61      1.0000 0.60830  0.24600  0.01970  Biso   1.000  H
  H62      1.0000 0.52450  0.26350  0.98450  Biso   1.000  H
  C55      1.0000 0.54850  0.26260  0.07770  Biso   1.000  C
  H63      1.0000 0.59070  0.24800  0.11190  Biso   1.000  H
  H64      1.0000 0.54930  0.30850  0.07800  Biso   1.000  H
  C56      1.0000 0.46020  0.43680  0.09880  Biso   1.000  C
  H65      1.0000 0.44270  0.46100  0.06120  Biso   1.000  H
  H66      1.0000 0.50120  0.41010  0.09710  Biso   1.000  H
  C57      1.0000 0.48820  0.48200  0.15340  Biso   1.000  C
  H67      1.0000 0.51320  0.45770  0.19000  Biso   1.000  H
  H68      1.0000 0.52470  0.51070  0.14660  Biso   1.000  H
  C58      1.0000 0.42530  0.52040  0.16360  Biso   1.000  C
  H69      1.0000 0.42320  0.51110  0.20400  Biso   1.000  H
  H70      1.0000 0.43640  0.56500  0.16230  Biso   1.000  H
  C59      1.0000 0.34960  0.50690  0.11650  Biso   1.000  C
  H71      1.0000 0.34940  0.52080  0.07660  Biso   1.000  H
  H72      1.0000 0.31130  0.53040  0.12680  Biso   1.000  H
  O1       1.0000 0.21590  0.35790  0.26810  Biso   1.000  O
  O2       1.0000 0.13550  0.24460  0.28140  Biso   1.000  O
  O3       1.0000 0.22560  0.11190  0.26770  Biso   1.000  O
  O4       1.0000 0.40160  0.08030  0.25180  Biso   1.000  O
  O5       1.0000 0.48490  0.20040  0.23420  Biso   1.000  O
  O6       1.0000 0.39040  0.34040  0.24590  Biso   1.000  O
  O7       1.0000 0.07710  0.35700  0.99940  Biso   1.000  O
  O8       1.0000 0.98790  0.21700  0.01910  Biso   1.000  O
  O9       1.0000 0.04710  0.06570  0.01010  Biso   1.000  O
  O10      1.0000 0.21010  0.07370  0.99150  Biso   1.000  O
  O11      1.0000 0.31020  0.21330  0.96150  Biso   1.000  O
  O12      1.0000 0.23950  0.35620  0.97670  Biso   1.000  O
  N1       1.0000 0.20500  0.41920  0.18340  Biso   1.000  N
  N2       1.0000 0.10240  0.38350  0.19710  Biso   1.000  N
  N3       1.0000 0.14370  0.42740  0.07350  Biso   1.000  N
  N4       1.0000 0.04930  0.37530  0.08700  Biso   1.000  N
  N5       1.0000 0.03410  0.29020  0.20970  Biso   1.000  N
  N6       1.0000 0.04240  0.18600  0.21480  Biso   1.000  N
  N7       1.0000 0.98460  0.27880  0.09960  Biso   1.000  N
  N8       1.0000 0.97650  0.17410  0.10670  Biso   1.000  N
  N9       1.0000 0.10430  0.08670  0.21120  Biso   1.000  N
  N10      1.0000 0.19740  0.03080  0.19800  Biso   1.000  N
  N11      1.0000 0.03310  0.07080  0.10460  Biso   1.000  N
  N12      1.0000 0.12240  0.01040  0.09250  Biso   1.000  N
  N13      1.0000 0.31620  0.01790  0.18100  Biso   1.000  N
  N14      1.0000 0.41490  0.05220  0.16010  Biso   1.000  N
  N15      1.0000 0.24230  0.00700  0.07410  Biso   1.000  N
  N16      1.0000 0.33210  0.06040  0.05420  Biso   1.000  N
  N17      1.0000 0.47490  0.14950  0.14470  Biso   1.000  N
  N18      1.0000 0.47170  0.25420  0.14570  Biso   1.000  N
  N19      1.0000 0.39560  0.15620  0.03790  Biso   1.000  N
  N20      1.0000 0.40990  0.25940  0.03510  Biso   1.000  N
  N21      1.0000 0.42010  0.35610  0.15840  Biso   1.000  N
  N22      1.0000 0.32830  0.41270  0.17210  Biso   1.000  N
  N23      1.0000 0.35770  0.36050  0.04830  Biso   1.000  N
  N24      1.0000 0.26700  0.41840  0.06240  Biso   1.000  N
  C60      1.0000 0.17690  0.38420  0.21990  Biso   1.000  C
  Gd2      1.0000 0.24290  0.21139  0.85325  Biso   1.000  Gd
  C61      1.0000 0.14500  0.05110  0.63310  Biso   1.000  C
  C62      1.0000 0.07280  0.08200  0.63920  Biso   1.000  C
  C63      1.0000 0.09000  0.11660  0.54860  Biso   1.000  C
  C64      1.0000 0.05520  0.14570  0.72770  Biso   1.000  C
  H73      1.0000 0.08130  0.14480  0.77150  Biso   1.000  H
  H74      1.0000 0.01000  0.12070  0.71970  Biso   1.000  H
  C65      1.0000 0.98040  0.16100  0.56850  Biso   1.000  C
  H75      1.0000 0.96570  0.16880  0.52480  Biso   1.000  H
  H76      1.0000 0.94130  0.13580  0.57570  Biso   1.000  H
  C66      1.0000 0.07670  0.25960  0.73900  Biso   1.000  C
  C67      1.0000 0.97070  0.22910  0.65760  Biso   1.000  C
  C68      1.0000 0.97240  0.30370  0.66520  Biso   1.000  C
  C69      1.0000 0.98390  0.27660  0.57060  Biso   1.000  C
  C70      1.0000 0.06940  0.37440  0.74390  Biso   1.000  C
  H77      1.0000 0.10490  0.36640  0.78440  Biso   1.000  H
  H78      1.0000 0.02740  0.39730  0.74900  Biso   1.000  H
  C71      1.0000 0.96580  0.39070  0.58550  Biso   1.000  C
  H79      1.0000 0.94580  0.39060  0.54120  Biso   1.000  H
  H80      1.0000 0.92870  0.41020  0.60030  Biso   1.000  H
  C72      1.0000 0.17980  0.42040  0.72960  Biso   1.000  C
  C73      1.0000 0.06540  0.45920  0.66460  Biso   1.000  C
  C74      1.0000 0.13100  0.49980  0.65660  Biso   1.000  C
  C75      1.0000 0.06610  0.44970  0.56360  Biso   1.000  C
  C76      1.0000 0.27140  0.49630  0.71930  Biso   1.000  C
  H81      1.0000 0.26690  0.54180  0.72170  Biso   1.000  H
  H82      1.0000 0.29730  0.48090  0.76030  Biso   1.000  H
  C77      1.0000 0.16820  0.51930  0.56090  Biso   1.000  C
  H83      1.0000 0.17310  0.56390  0.57140  Biso   1.000  H
  H84      1.0000 0.14230  0.51630  0.51720  Biso   1.000  H
  C78      1.0000 0.37910  0.44630  0.70270  Biso   1.000  C
  C79      1.0000 0.30830  0.51300  0.62270  Biso   1.000  C
  C80      1.0000 0.37370  0.48200  0.60480  Biso   1.000  C
  C81      1.0000 0.25770  0.45030  0.53630  Biso   1.000  C
  C82      1.0000 0.48380  0.41310  0.66970  Biso   1.000  C
  H85      1.0000 0.51010  0.41040  0.71340  Biso   1.000  H
  H86      1.0000 0.51520  0.43700  0.65190  Biso   1.000  H
  C83      1.0000 0.36670  0.40660  0.51560  Biso   1.000  C
  H87      1.0000 0.33010  0.40230  0.47500  Biso   1.000  H
  H88      1.0000 0.40760  0.43210  0.51200  Biso   1.000  H
  C84      1.0000 0.47660  0.29870  0.67980  Biso   1.000  C
  C85      1.0000 0.46980  0.33410  0.58290  Biso   1.000  C
  C86      1.0000 0.47660  0.26020  0.58570  Biso   1.000  C
  C87      1.0000 0.36660  0.29030  0.50760  Biso   1.000  C
  C88      1.0000 0.48470  0.18420  0.67470  Biso   1.000  C
  H89      1.0000 0.50230  0.19010  0.71880  Biso   1.000  H
  H90      1.0000 0.52410  0.16320  0.66400  Biso   1.000  H
  C89      1.0000 0.39530  0.17590  0.51420  Biso   1.000  C
  H91      1.0000 0.36470  0.17600  0.47130  Biso   1.000  H
  H92      1.0000 0.44240  0.15550  0.51760  Biso   1.000  H
  C90      1.0000 0.37960  0.13360  0.69680  Biso   1.000  C
  C91      1.0000 0.39730  0.10410  0.60430  Biso   1.000  C
  C92      1.0000 0.33150  0.06340  0.61410  Biso   1.000  C
  C93      1.0000 0.28470  0.12390  0.52450  Biso   1.000  C
  C94      1.0000 0.28260  0.06080  0.70510  Biso   1.000  C
  H93      1.0000 0.28420  0.01510  0.70260  Biso   1.000  H
  H94      1.0000 0.30430  0.07230  0.74790  Biso   1.000  H
  C95      1.0000 0.19490  0.05080  0.54290  Biso   1.000  C
  H95      1.0000 0.17170  0.05720  0.49920  Biso   1.000  H
  H96      1.0000 0.20250  0.00570  0.54980  Biso   1.000  H
  C96      1.0000 0.14390  0.97930  0.63780  Biso   1.000  C
  H97      1.0000 0.14620  0.96760  0.67890  Biso   1.000  H
  H98      1.0000 0.18780  0.96210  0.63080  Biso   1.000  H
  C97      1.0000 0.07400  0.95020  0.59210  Biso   1.000  C
  H99      1.0000 0.07970  0.94930  0.55200  Biso   1.000  H
  H100     1.0000 0.06900  0.90690  0.60390  Biso   1.000  H
  C98      1.0000 0.00260  0.98680  0.58810  Biso   1.000  C
  H101     1.0000 0.96380  0.95700  0.58840  Biso   1.000  H
  H102     1.0000 0.98540  0.00950  0.54960  Biso   1.000  H
  C99      1.0000 0.01390  0.03340  0.64010  Biso   1.000  C
  H103     1.0000 0.96690  0.05450  0.63590  Biso   1.000  H
  H104     1.0000 0.02980  0.01100  0.67880  Biso   1.000  H
  C100     1.0000 0.89780  0.20060  0.65820  Biso   1.000  C
  H105     1.0000 0.85770  0.21410  0.62190  Biso   1.000  H
  H106     1.0000 0.90120  0.15490  0.65700  Biso   1.000  H
  C101     1.0000 0.87930  0.22030  0.71550  Biso   1.000  C
  H107     1.0000 0.91000  0.19580  0.75010  Biso   1.000  H
  H108     1.0000 0.82740  0.21030  0.70930  Biso   1.000  H
  C102     1.0000 0.89200  0.28980  0.73050  Biso   1.000  C
  H109     1.0000 0.84880  0.30680  0.73890  Biso   1.000  H
  H110     1.0000 0.93510  0.29450  0.76730  Biso   1.000  H
  C103     1.0000 0.90490  0.32800  0.67900  Biso   1.000  C
  H111     1.0000 0.91240  0.37210  0.69090  Biso   1.000  H
  H112     1.0000 0.86110  0.32500  0.64260  Biso   1.000  H
  C104     1.0000 0.00910  0.49870  0.68220  Biso   1.000  C
  H113     1.0000 0.96630  0.47270  0.68090  Biso   1.000  H
  H114     1.0000 0.03170  0.51410  0.72360  Biso   1.000  H
  C105     1.0000 0.98310  0.55460  0.63840  Biso   1.000  C
  H115     1.0000 0.95560  0.53870  0.59790  Biso   1.000  H
  H116     1.0000 0.94910  0.58040  0.65180  Biso   1.000  H
  C106     1.0000 0.04870  0.59640  0.63470  Biso   1.000  C
  H117     1.0000 0.04380  0.63840  0.64970  Biso   1.000  H
  H118     1.0000 0.04580  0.60030  0.59220  Biso   1.000  H
  C107     1.0000 0.12470  0.56940  0.67160  Biso   1.000  C
  H119     1.0000 0.16370  0.59330  0.66270  Biso   1.000  H
  H120     1.0000 0.13210  0.57380  0.71480  Biso   1.000  H
  C108     1.0000 0.31690  0.58460  0.62910  Biso   1.000  C
  H121     1.0000 0.28260  0.60100  0.64860  Biso   1.000  H
  H122     1.0000 0.30450  0.60360  0.58890  Biso   1.000  H
  C109     1.0000 0.39700  0.60180  0.66720  Biso   1.000  C
  H123     1.0000 0.40080  0.64730  0.67220  Biso   1.000  H
  H124     1.0000 0.40880  0.58310  0.70750  Biso   1.000  H
  C110     1.0000 0.45420  0.57910  0.63790  Biso   1.000  C
  H125     1.0000 0.49660  0.56040  0.66920  Biso   1.000  H
  H126     1.0000 0.47230  0.61520  0.62100  Biso   1.000  H
  C111     1.0000 0.42100  0.53060  0.58720  Biso   1.000  C
  H127     1.0000 0.46130  0.50940  0.57780  Biso   1.000  H
  H128     1.0000 0.39050  0.55240  0.55050  Biso   1.000  H
  C112     1.0000 0.53150  0.36460  0.56310  Biso   1.000  C
  H129     1.0000 0.57890  0.36170  0.59620  Biso   1.000  H
  H130     1.0000 0.52010  0.40900  0.55430  Biso   1.000  H
  C113     1.0000 0.53800  0.33190  0.50670  Biso   1.000  C
  H131     1.0000 0.49100  0.33620  0.47330  Biso   1.000  H
  H132     1.0000 0.57670  0.35240  0.49460  Biso   1.000  H
  C114     1.0000 0.55710  0.26090  0.51830  Biso   1.000  C
  H133     1.0000 0.60830  0.25400  0.51970  Biso   1.000  H
  H134     1.0000 0.52450  0.23650  0.48450  Biso   1.000  H
  C115     1.0000 0.54850  0.23740  0.57770  Biso   1.000  C
  H135     1.0000 0.59070  0.25200  0.61190  Biso   1.000  H
  H136     1.0000 0.54930  0.19150  0.57800  Biso   1.000  H
  C116     1.0000 0.46020  0.06320  0.59880  Biso   1.000  C
  H137     1.0000 0.44270  0.03900  0.56120  Biso   1.000  H
  H138     1.0000 0.50120  0.08990  0.59710  Biso   1.000  H
  C117     1.0000 0.48820  0.01800  0.65340  Biso   1.000  C
  H139     1.0000 0.51320  0.04230  0.69000  Biso   1.000  H
  H140     1.0000 0.52470  0.98930  0.64660  Biso   1.000  H
  C118     1.0000 0.42530  0.97960  0.66360  Biso   1.000  C
  H141     1.0000 0.42320  0.98890  0.70400  Biso   1.000  H
  H142     1.0000 0.43640  0.93500  0.66230  Biso   1.000  H
  C119     1.0000 0.34960  0.99310  0.61650  Biso   1.000  C
  H143     1.0000 0.34940  0.97920  0.57660  Biso   1.000  H
  H144     1.0000 0.31130  0.96960  0.62680  Biso   1.000  H
  O13      1.0000 0.21590  0.14210  0.76810  Biso   1.000  O
  O14      1.0000 0.13550  0.25540  0.78140  Biso   1.000  O
  O15      1.0000 0.22560  0.38810  0.76770  Biso   1.000  O
  O16      1.0000 0.40160  0.41970  0.75180  Biso   1.000  O
  O17      1.0000 0.48490  0.29960  0.73420  Biso   1.000  O
  O18      1.0000 0.39040  0.15960  0.74590  Biso   1.000  O
  O19      1.0000 0.07710  0.14300  0.49940  Biso   1.000  O
  O20      1.0000 0.98790  0.28300  0.51910  Biso   1.000  O
  O21      1.0000 0.04710  0.43430  0.51010  Biso   1.000  O
  O22      1.0000 0.21010  0.42630  0.49150  Biso   1.000  O
  O23      1.0000 0.31020  0.28670  0.46150  Biso   1.000  O
  O24      1.0000 0.23950  0.14380  0.47670  Biso   1.000  O
  N25      1.0000 0.20500  0.08080  0.68340  Biso   1.000  N
  N26      1.0000 0.10240  0.11650  0.69710  Biso   1.000  N
  N27      1.0000 0.14370  0.07260  0.57350  Biso   1.000  N
  N28      1.0000 0.04930  0.12470  0.58700  Biso   1.000  N
  N29      1.0000 0.03410  0.20980  0.70970  Biso   1.000  N
  N30      1.0000 0.04240  0.31400  0.71480  Biso   1.000  N
  N31      1.0000 0.98460  0.22120  0.59960  Biso   1.000  N
  N32      1.0000 0.97650  0.32590  0.60670  Biso   1.000  N
  N33      1.0000 0.10430  0.41330  0.71120  Biso   1.000  N
  N34      1.0000 0.19740  0.46920  0.69800  Biso   1.000  N
  N35      1.0000 0.03310  0.42920  0.60460  Biso   1.000  N
  N36      1.0000 0.12240  0.48960  0.59250  Biso   1.000  N
  N37      1.0000 0.31620  0.48210  0.68100  Biso   1.000  N
  N38      1.0000 0.41490  0.44780  0.66010  Biso   1.000  N
  N39      1.0000 0.24230  0.49300  0.57410  Biso   1.000  N
  N40      1.0000 0.33210  0.43960  0.55420  Biso   1.000  N
  N41      1.0000 0.47490  0.35050  0.64470  Biso   1.000  N
  N42      1.0000 0.47170  0.24580  0.64570  Biso   1.000  N
  N43      1.0000 0.39560  0.34380  0.53790  Biso   1.000  N
  N44      1.0000 0.40990  0.24060  0.53510  Biso   1.000  N
  N45      1.0000 0.42010  0.14390  0.65840  Biso   1.000  N
  N46      1.0000 0.32830  0.08730  0.67210  Biso   1.000  N
  N47      1.0000 0.35770  0.13950  0.54830  Biso   1.000  N
  N48      1.0000 0.26700  0.08160  0.56240  Biso   1.000  N
  C120     1.0000 0.17690  0.11580  0.71990  Biso   1.000  C
  Gd3      1.0000 0.75710  0.78861  0.14675  Biso   1.000  Gd
  C121     1.0000 0.85500  0.94890  0.36690  Biso   1.000  C
  C122     1.0000 0.92720  0.91800  0.36080  Biso   1.000  C
  C123     1.0000 0.91000  0.88340  0.45140  Biso   1.000  C
  C124     1.0000 0.94480  0.85430  0.27230  Biso   1.000  C
  H145     1.0000 0.91870  0.85520  0.22850  Biso   1.000  H
  H146     1.0000 0.99000  0.87930  0.28030  Biso   1.000  H
  C125     1.0000 0.01960  0.83900  0.43150  Biso   1.000  C
  H147     1.0000 0.03430  0.83120  0.47520  Biso   1.000  H
  H148     1.0000 0.05870  0.86420  0.42430  Biso   1.000  H
  C126     1.0000 0.92330  0.74040  0.26100  Biso   1.000  C
  C127     1.0000 0.02930  0.77090  0.34240  Biso   1.000  C
  C128     1.0000 0.02760  0.69630  0.33480  Biso   1.000  C
  C129     1.0000 0.01610  0.72340  0.42940  Biso   1.000  C
  C130     1.0000 0.93060  0.62560  0.25610  Biso   1.000  C
  H149     1.0000 0.89510  0.63360  0.21560  Biso   1.000  H
  H150     1.0000 0.97260  0.60270  0.25100  Biso   1.000  H
  C131     1.0000 0.03420  0.60930  0.41450  Biso   1.000  C
  H151     1.0000 0.05420  0.60940  0.45880  Biso   1.000  H
  H152     1.0000 0.07130  0.58980  0.39970  Biso   1.000  H
  C132     1.0000 0.82020  0.57960  0.27040  Biso   1.000  C
  C133     1.0000 0.93460  0.54080  0.33540  Biso   1.000  C
  C134     1.0000 0.86900  0.50020  0.34340  Biso   1.000  C
  C135     1.0000 0.93390  0.55030  0.43640  Biso   1.000  C
  C136     1.0000 0.72860  0.50370  0.28070  Biso   1.000  C
  H153     1.0000 0.73310  0.45820  0.27830  Biso   1.000  H
  H154     1.0000 0.70270  0.51910  0.23970  Biso   1.000  H
  C137     1.0000 0.83180  0.48070  0.43910  Biso   1.000  C
  H155     1.0000 0.82690  0.43610  0.42860  Biso   1.000  H
  H156     1.0000 0.85770  0.48370  0.48280  Biso   1.000  H
  C138     1.0000 0.62090  0.55370  0.29730  Biso   1.000  C
  C139     1.0000 0.69170  0.48700  0.37730  Biso   1.000  C
  C140     1.0000 0.62630  0.51800  0.39520  Biso   1.000  C
  C141     1.0000 0.74230  0.54970  0.46370  Biso   1.000  C
  C142     1.0000 0.51620  0.58690  0.33030  Biso   1.000  C
  H157     1.0000 0.48990  0.58960  0.28660  Biso   1.000  H
  H158     1.0000 0.48480  0.56300  0.34810  Biso   1.000  H
  C143     1.0000 0.63330  0.59340  0.48440  Biso   1.000  C
  H159     1.0000 0.66990  0.59770  0.52500  Biso   1.000  H
  H160     1.0000 0.59240  0.56790  0.48800  Biso   1.000  H
  C144     1.0000 0.52340  0.70130  0.32020  Biso   1.000  C
  C145     1.0000 0.53020  0.66590  0.41710  Biso   1.000  C
  C146     1.0000 0.52340  0.73980  0.41430  Biso   1.000  C
  C147     1.0000 0.63340  0.70970  0.49240  Biso   1.000  C
  C148     1.0000 0.51530  0.81580  0.32530  Biso   1.000  C
  H161     1.0000 0.49770  0.80990  0.28120  Biso   1.000  H
  H162     1.0000 0.47590  0.83680  0.33600  Biso   1.000  H
  C149     1.0000 0.60470  0.82410  0.48580  Biso   1.000  C
  H163     1.0000 0.63530  0.82400  0.52870  Biso   1.000  H
  H164     1.0000 0.55760  0.84450  0.48240  Biso   1.000  H
  C150     1.0000 0.62040  0.86640  0.30320  Biso   1.000  C
  C151     1.0000 0.60270  0.89590  0.39570  Biso   1.000  C
  C152     1.0000 0.66850  0.93660  0.38590  Biso   1.000  C
  C153     1.0000 0.71530  0.87610  0.47550  Biso   1.000  C
  C154     1.0000 0.71740  0.93920  0.29490  Biso   1.000  C
  H165     1.0000 0.71580  0.98490  0.29740  Biso   1.000  H
  H166     1.0000 0.69570  0.92770  0.25210  Biso   1.000  H
  C155     1.0000 0.80510  0.94920  0.45710  Biso   1.000  C
  H167     1.0000 0.82830  0.94280  0.50080  Biso   1.000  H
  H168     1.0000 0.79750  0.99430  0.45020  Biso   1.000  H
  C156     1.0000 0.85610  0.02070  0.36220  Biso   1.000  C
  H169     1.0000 0.85380  0.03240  0.32110  Biso   1.000  H
  H170     1.0000 0.81220  0.03790  0.36920  Biso   1.000  H
  C157     1.0000 0.92600  0.04980  0.40790  Biso   1.000  C
  H171     1.0000 0.92030  0.05070  0.44800  Biso   1.000  H
  H172     1.0000 0.93100  0.09310  0.39610  Biso   1.000  H
  C158     1.0000 0.99740  0.01320  0.41190  Biso   1.000  C
  H173     1.0000 0.03620  0.04300  0.41160  Biso   1.000  H
  H174     1.0000 0.01460  0.99050  0.45040  Biso   1.000  H
  C159     1.0000 0.98610  0.96660  0.35990  Biso   1.000  C
  H175     1.0000 0.03310  0.94550  0.36410  Biso   1.000  H
  H176     1.0000 0.97020  0.98900  0.32120  Biso   1.000  H
  C160     1.0000 0.10220  0.79940  0.34180  Biso   1.000  C
  H177     1.0000 0.14230  0.78590  0.37810  Biso   1.000  H
  H178     1.0000 0.09880  0.84510  0.34300  Biso   1.000  H
  C161     1.0000 0.12070  0.77970  0.28450  Biso   1.000  C
  H179     1.0000 0.09000  0.80420  0.24990  Biso   1.000  H
  H180     1.0000 0.17260  0.78970  0.29070  Biso   1.000  H
  C162     1.0000 0.10800  0.71020  0.26950  Biso   1.000  C
  H181     1.0000 0.15120  0.69320  0.26110  Biso   1.000  H
  H182     1.0000 0.06490  0.70550  0.23270  Biso   1.000  H
  C163     1.0000 0.09510  0.67200  0.32100  Biso   1.000  C
  H183     1.0000 0.08760  0.62790  0.30910  Biso   1.000  H
  H184     1.0000 0.13890  0.67500  0.35740  Biso   1.000  H
  C164     1.0000 0.99090  0.50130  0.31780  Biso   1.000  C
  H185     1.0000 0.03370  0.52730  0.31910  Biso   1.000  H
  H186     1.0000 0.96830  0.48590  0.27640  Biso   1.000  H
  C165     1.0000 0.01690  0.44540  0.36160  Biso   1.000  C
  H187     1.0000 0.04440  0.46130  0.40210  Biso   1.000  H
  H188     1.0000 0.05090  0.41960  0.34820  Biso   1.000  H
  C166     1.0000 0.95130  0.40360  0.36530  Biso   1.000  C
  H189     1.0000 0.95620  0.36160  0.35030  Biso   1.000  H
  H190     1.0000 0.95420  0.39970  0.40780  Biso   1.000  H
  C167     1.0000 0.87530  0.43060  0.32840  Biso   1.000  C
  H191     1.0000 0.83630  0.40670  0.33730  Biso   1.000  H
  H192     1.0000 0.86790  0.42620  0.28520  Biso   1.000  H
  C168     1.0000 0.68310  0.41540  0.37090  Biso   1.000  C
  H193     1.0000 0.71740  0.39900  0.35140  Biso   1.000  H
  H194     1.0000 0.69550  0.39640  0.41110  Biso   1.000  H
  C169     1.0000 0.60300  0.39820  0.33280  Biso   1.000  C
  H195     1.0000 0.59920  0.35270  0.32780  Biso   1.000  H
  H196     1.0000 0.59120  0.41690  0.29250  Biso   1.000  H
  C170     1.0000 0.54580  0.42090  0.36210  Biso   1.000  C
  H197     1.0000 0.50340  0.43960  0.33080  Biso   1.000  H
  H198     1.0000 0.52770  0.38480  0.37900  Biso   1.000  H
  C171     1.0000 0.57900  0.46940  0.41280  Biso   1.000  C
  H199     1.0000 0.53870  0.49060  0.42220  Biso   1.000  H
  H200     1.0000 0.60950  0.44760  0.44950  Biso   1.000  H
  C172     1.0000 0.46850  0.63540  0.43690  Biso   1.000  C
  H201     1.0000 0.42110  0.63830  0.40380  Biso   1.000  H
  H202     1.0000 0.47990  0.59100  0.44570  Biso   1.000  H
  C173     1.0000 0.46200  0.66810  0.49330  Biso   1.000  C
  H203     1.0000 0.50900  0.66380  0.52670  Biso   1.000  H
  H204     1.0000 0.42330  0.64760  0.50540  Biso   1.000  H
  C174     1.0000 0.44290  0.73910  0.48170  Biso   1.000  C
  H205     1.0000 0.39170  0.74600  0.48030  Biso   1.000  H
  H206     1.0000 0.47550  0.76350  0.51550  Biso   1.000  H
  C175     1.0000 0.45150  0.76260  0.42230  Biso   1.000  C
  H207     1.0000 0.40930  0.74800  0.38810  Biso   1.000  H
  H208     1.0000 0.45070  0.80850  0.42200  Biso   1.000  H
  C176     1.0000 0.53980  0.93680  0.40120  Biso   1.000  C
  H209     1.0000 0.55730  0.96100  0.43880  Biso   1.000  H
  H210     1.0000 0.49880  0.91010  0.40290  Biso   1.000  H
  C177     1.0000 0.51180  0.98200  0.34660  Biso   1.000  C
  H211     1.0000 0.48680  0.95770  0.31000  Biso   1.000  H
  H212     1.0000 0.47530  0.01070  0.35340  Biso   1.000  H
  C178     1.0000 0.57470  0.02040  0.33640  Biso   1.000  C
  H213     1.0000 0.57680  0.01110  0.29600  Biso   1.000  H
  H214     1.0000 0.56360  0.06500  0.33770  Biso   1.000  H
  C179     1.0000 0.65040  0.00690  0.38350  Biso   1.000  C
  H215     1.0000 0.65060  0.02080  0.42340  Biso   1.000  H
  H216     1.0000 0.68870  0.03040  0.37320  Biso   1.000  H
  O25      1.0000 0.78410  0.85790  0.23190  Biso   1.000  O
  O26      1.0000 0.86450  0.74460  0.21860  Biso   1.000  O
  O27      1.0000 0.77440  0.61190  0.23230  Biso   1.000  O
  O28      1.0000 0.59840  0.58030  0.24820  Biso   1.000  O
  O29      1.0000 0.51510  0.70040  0.26580  Biso   1.000  O
  O30      1.0000 0.60960  0.84040  0.25410  Biso   1.000  O
  O31      1.0000 0.92290  0.85700  0.50060  Biso   1.000  O
  O32      1.0000 0.01210  0.71700  0.48090  Biso   1.000  O
  O33      1.0000 0.95290  0.56570  0.48990  Biso   1.000  O
  O34      1.0000 0.78990  0.57370  0.50850  Biso   1.000  O
  O35      1.0000 0.68980  0.71330  0.53850  Biso   1.000  O
  O36      1.0000 0.76050  0.85620  0.52330  Biso   1.000  O
  N49      1.0000 0.79500  0.91920  0.31660  Biso   1.000  N
  N50      1.0000 0.89760  0.88350  0.30290  Biso   1.000  N
  N51      1.0000 0.85630  0.92740  0.42650  Biso   1.000  N
  N52      1.0000 0.95070  0.87530  0.41300  Biso   1.000  N
  N53      1.0000 0.96590  0.79020  0.29030  Biso   1.000  N
  N54      1.0000 0.95760  0.68600  0.28520  Biso   1.000  N
  N55      1.0000 0.01540  0.77880  0.40040  Biso   1.000  N
  N56      1.0000 0.02350  0.67410  0.39330  Biso   1.000  N
  N57      1.0000 0.89570  0.58670  0.28880  Biso   1.000  N
  N58      1.0000 0.80260  0.53080  0.30200  Biso   1.000  N
  N59      1.0000 0.96690  0.57080  0.39540  Biso   1.000  N
  N60      1.0000 0.87760  0.51040  0.40750  Biso   1.000  N
  N61      1.0000 0.68380  0.51790  0.31900  Biso   1.000  N
  N62      1.0000 0.58510  0.55220  0.33990  Biso   1.000  N
  N63      1.0000 0.75770  0.50700  0.42590  Biso   1.000  N
  N64      1.0000 0.66790  0.56040  0.44580  Biso   1.000  N
  N65      1.0000 0.52510  0.64950  0.35530  Biso   1.000  N
  N66      1.0000 0.52830  0.75420  0.35430  Biso   1.000  N
  N67      1.0000 0.60440  0.65620  0.46210  Biso   1.000  N
  N68      1.0000 0.59010  0.75940  0.46490  Biso   1.000  N
  N69      1.0000 0.57990  0.85610  0.34160  Biso   1.000  N
  N70      1.0000 0.67170  0.91270  0.32790  Biso   1.000  N
  N71      1.0000 0.64230  0.86050  0.45170  Biso   1.000  N
  N72      1.0000 0.73300  0.91840  0.43760  Biso   1.000  N
  C180     1.0000 0.82310  0.88420  0.28010  Biso   1.000  C
  Gd4      1.0000 0.75710  0.71139  0.64675  Biso   1.000  Gd
  C181     1.0000 0.85500  0.55110  0.86690  Biso   1.000  C
  C182     1.0000 0.92720  0.58200  0.86080  Biso   1.000  C
  C183     1.0000 0.91000  0.61660  0.95140  Biso   1.000  C
  C184     1.0000 0.94480  0.64570  0.77230  Biso   1.000  C
  H217     1.0000 0.91870  0.64480  0.72850  Biso   1.000  H
  H218     1.0000 0.99000  0.62070  0.78030  Biso   1.000  H
  C185     1.0000 0.01960  0.66100  0.93150  Biso   1.000  C
  H219     1.0000 0.03430  0.66880  0.97520  Biso   1.000  H
  H220     1.0000 0.05870  0.63580  0.92430  Biso   1.000  H
  C186     1.0000 0.92330  0.75960  0.76100  Biso   1.000  C
  C187     1.0000 0.02930  0.72910  0.84240  Biso   1.000  C
  C188     1.0000 0.02760  0.80370  0.83480  Biso   1.000  C
  C189     1.0000 0.01610  0.77660  0.92940  Biso   1.000  C
  C190     1.0000 0.93060  0.87440  0.75610  Biso   1.000  C
  H221     1.0000 0.89510  0.86640  0.71560  Biso   1.000  H
  H222     1.0000 0.97260  0.89730  0.75100  Biso   1.000  H
  C191     1.0000 0.03420  0.89070  0.91450  Biso   1.000  C
  H223     1.0000 0.05420  0.89060  0.95880  Biso   1.000  H
  H224     1.0000 0.07130  0.91020  0.89970  Biso   1.000  H
  C192     1.0000 0.82020  0.92040  0.77040  Biso   1.000  C
  C193     1.0000 0.93460  0.95920  0.83540  Biso   1.000  C
  C194     1.0000 0.86900  0.99980  0.84340  Biso   1.000  C
  C195     1.0000 0.93390  0.94970  0.93640  Biso   1.000  C
  C196     1.0000 0.72860  0.99630  0.78070  Biso   1.000  C
  H225     1.0000 0.73310  0.04180  0.77830  Biso   1.000  H
  H226     1.0000 0.70270  0.98090  0.73970  Biso   1.000  H
  C197     1.0000 0.83180  0.01930  0.93910  Biso   1.000  C
  H227     1.0000 0.82690  0.06390  0.92860  Biso   1.000  H
  H228     1.0000 0.85770  0.01630  0.98280  Biso   1.000  H
  C198     1.0000 0.62090  0.94630  0.79730  Biso   1.000  C
  C199     1.0000 0.69170  0.01300  0.87730  Biso   1.000  C
  C200     1.0000 0.62630  0.98200  0.89520  Biso   1.000  C
  C201     1.0000 0.74230  0.95030  0.96370  Biso   1.000  C
  C202     1.0000 0.51620  0.91310  0.83030  Biso   1.000  C
  H229     1.0000 0.48990  0.91040  0.78660  Biso   1.000  H
  H230     1.0000 0.48480  0.93700  0.84810  Biso   1.000  H
  C203     1.0000 0.63330  0.90660  0.98440  Biso   1.000  C
  H231     1.0000 0.66990  0.90230  0.02500  Biso   1.000  H
  H232     1.0000 0.59240  0.93210  0.98800  Biso   1.000  H
  C204     1.0000 0.52340  0.79870  0.82020  Biso   1.000  C
  C205     1.0000 0.53020  0.83410  0.91710  Biso   1.000  C
  C206     1.0000 0.52340  0.76020  0.91430  Biso   1.000  C
  C207     1.0000 0.63340  0.79030  0.99240  Biso   1.000  C
  C208     1.0000 0.51530  0.68420  0.82530  Biso   1.000  C
  H233     1.0000 0.49770  0.69010  0.78120  Biso   1.000  H
  H234     1.0000 0.47590  0.66320  0.83600  Biso   1.000  H
  C209     1.0000 0.60470  0.67590  0.98580  Biso   1.000  C
  H235     1.0000 0.63530  0.67600  0.02870  Biso   1.000  H
  H236     1.0000 0.55760  0.65550  0.98240  Biso   1.000  H
  C210     1.0000 0.62040  0.63360  0.80320  Biso   1.000  C
  C211     1.0000 0.60270  0.60410  0.89570  Biso   1.000  C
  C212     1.0000 0.66850  0.56340  0.88590  Biso   1.000  C
  C213     1.0000 0.71530  0.62390  0.97550  Biso   1.000  C
  C214     1.0000 0.71740  0.56080  0.79490  Biso   1.000  C
  H237     1.0000 0.71580  0.51510  0.79740  Biso   1.000  H
  H238     1.0000 0.69570  0.57230  0.75210  Biso   1.000  H
  C215     1.0000 0.80510  0.55080  0.95710  Biso   1.000  C
  H239     1.0000 0.82830  0.55720  0.00080  Biso   1.000  H
  H240     1.0000 0.79750  0.50570  0.95020  Biso   1.000  H
  C216     1.0000 0.85610  0.47930  0.86220  Biso   1.000  C
  H241     1.0000 0.85380  0.46760  0.82110  Biso   1.000  H
  H242     1.0000 0.81220  0.46210  0.86920  Biso   1.000  H
  C217     1.0000 0.92600  0.45020  0.90790  Biso   1.000  C
  H243     1.0000 0.92030  0.44930  0.94800  Biso   1.000  H
  H244     1.0000 0.93100  0.40690  0.89610  Biso   1.000  H
  C218     1.0000 0.99740  0.48680  0.91190  Biso   1.000  C
  H245     1.0000 0.03620  0.45700  0.91160  Biso   1.000  H
  H246     1.0000 0.01460  0.50950  0.95040  Biso   1.000  H
  C219     1.0000 0.98610  0.53340  0.85990  Biso   1.000  C
  H247     1.0000 0.03310  0.55450  0.86410  Biso   1.000  H
  H248     1.0000 0.97020  0.51100  0.82120  Biso   1.000  H
  C220     1.0000 0.10220  0.70060  0.84180  Biso   1.000  C
  H249     1.0000 0.14230  0.71410  0.87810  Biso   1.000  H
  H250     1.0000 0.09880  0.65490  0.84300  Biso   1.000  H
  C221     1.0000 0.12070  0.72030  0.78450  Biso   1.000  C
  H251     1.0000 0.09000  0.69580  0.74990  Biso   1.000  H
  H252     1.0000 0.17260  0.71030  0.79070  Biso   1.000  H
  C222     1.0000 0.10800  0.78980  0.76950  Biso   1.000  C
  H253     1.0000 0.15120  0.80680  0.76110  Biso   1.000  H
  H254     1.0000 0.06490  0.79450  0.73270  Biso   1.000  H
  C223     1.0000 0.09510  0.82800  0.82100  Biso   1.000  C
  H255     1.0000 0.08760  0.87210  0.80910  Biso   1.000  H
  H256     1.0000 0.13890  0.82500  0.85740  Biso   1.000  H
  C224     1.0000 0.99090  0.99870  0.81780  Biso   1.000  C
  H257     1.0000 0.03370  0.97270  0.81910  Biso   1.000  H
  H258     1.0000 0.96830  0.01410  0.77640  Biso   1.000  H
  C225     1.0000 0.01690  0.05460  0.86160  Biso   1.000  C
  H259     1.0000 0.04440  0.03870  0.90210  Biso   1.000  H
  H260     1.0000 0.05090  0.08040  0.84820  Biso   1.000  H
  C226     1.0000 0.95130  0.09640  0.86530  Biso   1.000  C
  H261     1.0000 0.95620  0.13840  0.85030  Biso   1.000  H
  H262     1.0000 0.95420  0.10030  0.90780  Biso   1.000  H
  C227     1.0000 0.87530  0.06940  0.82840  Biso   1.000  C
  H263     1.0000 0.83630  0.09330  0.83730  Biso   1.000  H
  H264     1.0000 0.86790  0.07380  0.78520  Biso   1.000  H
  C228     1.0000 0.68310  0.08460  0.87090  Biso   1.000  C
  H265     1.0000 0.71740  0.10100  0.85140  Biso   1.000  H
  H266     1.0000 0.69550  0.10360  0.91110  Biso   1.000  H
  C229     1.0000 0.60300  0.10180  0.83280  Biso   1.000  C
  H267     1.0000 0.59920  0.14730  0.82780  Biso   1.000  H
  H268     1.0000 0.59120  0.08310  0.79250  Biso   1.000  H
  C230     1.0000 0.54580  0.07910  0.86210  Biso   1.000  C
  H269     1.0000 0.50340  0.06040  0.83080  Biso   1.000  H
  H270     1.0000 0.52770  0.11520  0.87900  Biso   1.000  H
  C231     1.0000 0.57900  0.03060  0.91280  Biso   1.000  C
  H271     1.0000 0.53870  0.00940  0.92220  Biso   1.000  H
  H272     1.0000 0.60950  0.05240  0.94950  Biso   1.000  H
  C232     1.0000 0.46850  0.86460  0.93690  Biso   1.000  C
  H273     1.0000 0.42110  0.86170  0.90380  Biso   1.000  H
  H274     1.0000 0.47990  0.90900  0.94570  Biso   1.000  H
  C233     1.0000 0.46200  0.83190  0.99330  Biso   1.000  C
  H275     1.0000 0.50900  0.83620  0.02670  Biso   1.000  H
  H276     1.0000 0.42330  0.85240  0.00540  Biso   1.000  H
  C234     1.0000 0.44290  0.76090  0.98170  Biso   1.000  C
  H277     1.0000 0.39170  0.75400  0.98030  Biso   1.000  H
  H278     1.0000 0.47550  0.73650  0.01550  Biso   1.000  H
  C235     1.0000 0.45150  0.73740  0.92230  Biso   1.000  C
  H279     1.0000 0.40930  0.75200  0.88810  Biso   1.000  H
  H280     1.0000 0.45070  0.69150  0.92200  Biso   1.000  H
  C236     1.0000 0.53980  0.56320  0.90120  Biso   1.000  C
  H281     1.0000 0.55730  0.53900  0.93880  Biso   1.000  H
  H282     1.0000 0.49880  0.58990  0.90290  Biso   1.000  H
  C237     1.0000 0.51180  0.51800  0.84660  Biso   1.000  C
  H283     1.0000 0.48680  0.54230  0.81000  Biso   1.000  H
  H284     1.0000 0.47530  0.48930  0.85340  Biso   1.000  H
  C238     1.0000 0.57470  0.47960  0.83640  Biso   1.000  C
  H285     1.0000 0.57680  0.48890  0.79600  Biso   1.000  H
  H286     1.0000 0.56360  0.43500  0.83770  Biso   1.000  H
  C239     1.0000 0.65040  0.49310  0.88350  Biso   1.000  C
  H287     1.0000 0.65060  0.47920  0.92340  Biso   1.000  H
  H288     1.0000 0.68870  0.46960  0.87320  Biso   1.000  H
  O37      1.0000 0.78410  0.64210  0.73190  Biso   1.000  O
  O38      1.0000 0.86450  0.75540  0.71860  Biso   1.000  O
  O39      1.0000 0.77440  0.88810  0.73230  Biso   1.000  O
  O40      1.0000 0.59840  0.91970  0.74820  Biso   1.000  O
  O41      1.0000 0.51510  0.79960  0.76580  Biso   1.000  O
  O42      1.0000 0.60960  0.65960  0.75410  Biso   1.000  O
  O43      1.0000 0.92290  0.64300  0.00060  Biso   1.000  O
  O44      1.0000 0.01210  0.78300  0.98090  Biso   1.000  O
  O45      1.0000 0.95290  0.93430  0.98990  Biso   1.000  O
  O46      1.0000 0.78990  0.92630  0.00850  Biso   1.000  O
  O47      1.0000 0.68980  0.78670  0.03850  Biso   1.000  O
  O48      1.0000 0.76050  0.64380  0.02330  Biso   1.000  O
  N73      1.0000 0.79500  0.58080  0.81660  Biso   1.000  N
  N74      1.0000 0.89760  0.61650  0.80290  Biso   1.000  N
  N75      1.0000 0.85630  0.57260  0.92650  Biso   1.000  N
  N76      1.0000 0.95070  0.62470  0.91300  Biso   1.000  N
  N77      1.0000 0.96590  0.70980  0.79030  Biso   1.000  N
  N78      1.0000 0.95760  0.81400  0.78520  Biso   1.000  N
  N79      1.0000 0.01540  0.72120  0.90040  Biso   1.000  N
  N80      1.0000 0.02350  0.82590  0.89330  Biso   1.000  N
  N81      1.0000 0.89570  0.91330  0.78880  Biso   1.000  N
  N82      1.0000 0.80260  0.96920  0.80200  Biso   1.000  N
  N83      1.0000 0.96690  0.92920  0.89540  Biso   1.000  N
  N84      1.0000 0.87760  0.98960  0.90750  Biso   1.000  N
  N85      1.0000 0.68380  0.98210  0.81900  Biso   1.000  N
  N86      1.0000 0.58510  0.94780  0.83990  Biso   1.000  N
  N87      1.0000 0.75770  0.99300  0.92590  Biso   1.000  N
  N88      1.0000 0.66790  0.93960  0.94580  Biso   1.000  N
  N89      1.0000 0.52510  0.85050  0.85530  Biso   1.000  N
  N90      1.0000 0.52830  0.74580  0.85430  Biso   1.000  N
  N91      1.0000 0.60440  0.84380  0.96210  Biso   1.000  N
  N92      1.0000 0.59010  0.74060  0.96490  Biso   1.000  N
  N93      1.0000 0.57990  0.64390  0.84160  Biso   1.000  N
  N94      1.0000 0.67170  0.58730  0.82790  Biso   1.000  N
  N95      1.0000 0.64230  0.63950  0.95170  Biso   1.000  N
  N96      1.0000 0.73300  0.58160  0.93760  Biso   1.000  N
  C240     1.0000 0.82310  0.61580  0.78010  Biso   1.000  C
