data_image0
_cell_length_a       19.0204
_cell_length_b       21.1359
_cell_length_c       23.165
_cell_angle_alpha    90
_cell_angle_beta     109.292
_cell_angle_gamma    90

_symmetry_space_group_name_H-M    "P 1"
_symmetry_int_tables_number       1

loop_
  _symmetry_equiv_pos_as_xyz
  'x, y, z'

loop_
  _atom_site_label
  _atom_site_occupancy
  _atom_site_fract_x
  _atom_site_fract_y
  _atom_site_fract_z
  _atom_site_thermal_displace_type
  _atom_site_B_iso_or_equiv
  _atom_site_type_symbol
  Tb1      1.0000 0.74218  0.78913  0.85334  Biso   1.000  Tb
  O1       1.0000 0.98166  0.79918  0.23459  Biso   1.000  O
  O2       1.0000 0.57700  0.64113  0.99957  Biso   1.000  O
  O3       1.0000 0.88912  0.65868  0.24667  Biso   1.000  O
  O4       1.0000 0.72472  0.88770  0.26932  Biso   1.000  O
  O5       1.0000 0.63567  0.75437  0.28206  Biso   1.000  O
  O6       1.0000 0.54756  0.93337  0.01030  Biso   1.000  O
  O7       1.0000 0.71534  0.64082  0.26803  Biso   1.000  O
  O8       1.0000 0.70916  0.92624  0.99173  Biso   1.000  O
  O9       1.0000 0.80922  0.78688  0.96149  Biso   1.000  O
  O10      1.0000 0.89903  0.91994  0.25282  Biso   1.000  O
  O11      1.0000 0.73907  0.64292  0.97681  Biso   1.000  O
  O12      1.0000 0.48812  0.78056  0.01916  Biso   1.000  O
  N1       1.0000 0.64420  0.57083  0.07388  Biso   1.000  N
  N2       1.0000 0.76657  0.58056  0.06255  Biso   1.000  N
  N3       1.0000 0.60347  0.91273  0.21183  Biso   1.000  N
  N4       1.0000 0.70541  0.57952  0.18392  Biso   1.000  N
  N5       1.0000 0.54911  0.62246  0.08733  Biso   1.000  N
  N6       1.0000 0.48476  0.71905  0.10054  Biso   1.000  N
  N7       1.0000 0.60249  0.61473  0.19743  Biso   1.000  N
  N8       1.0000 0.69602  0.96864  0.19907  Biso   1.000  N
  N9       1.0000 0.47683  0.82388  0.10719  Biso   1.000  N
  N10      1.0000 0.81400  0.98216  0.18179  Biso   1.000  N
  N11      1.0000 0.82743  0.58623  0.17222  Biso   1.000  N
  N12      1.0000 0.91889  0.64324  0.15867  Biso   1.000  N
  N13      1.0000 0.90883  0.74076  0.03505  Biso   1.000  N
  N14      1.0000 0.54196  0.81274  0.21600  Biso   1.000  N
  N15      1.0000 0.83122  0.93970  0.05529  Biso   1.000  N
  N16      1.0000 0.91313  0.94768  0.16126  Biso   1.000  N
  N17      1.0000 0.74059  0.99319  0.07468  Biso   1.000  N
  N18      1.0000 0.89418  0.84446  0.03816  Biso   1.000  N
  N19      1.0000 0.53475  0.70837  0.21055  Biso   1.000  N
  N20      1.0000 0.97199  0.85025  0.14496  Biso   1.000  N
  N21      1.0000 0.62186  0.98943  0.09306  Biso   1.000  N
  N22      1.0000 0.53249  0.92816  0.10484  Biso   1.000  N
  N23      1.0000 0.96942  0.74538  0.14545  Biso   1.000  N
  N24      1.0000 0.85704  0.63839  0.04864  Biso   1.000  N
  C1       1.0000 0.86489  0.79024  0.00733  Biso   1.000  C
  C2       1.0000 0.96839  0.83412  0.08338  Biso   1.000  C
  C3       1.0000 0.76944  0.99628  0.22001  Biso   1.000  C
  H1       1.0000 0.79550  0.98120  0.26110  Biso   1.000  H
  H2       1.0000 0.76460  0.04180  0.22210  Biso   1.000  H
  C4       1.0000 0.97425  0.75996  0.08536  Biso   1.000  C
  C5       1.0000 0.87891  0.63230  0.19701  Biso   1.000  C
  C6       1.0000 0.98211  0.91351  0.17101  Biso   1.000  C
  H3       1.0000 0.00820  0.91040  0.21460  Biso   1.000  H
  H4       1.0000 0.01330  0.93760  0.15330  Biso   1.000  H
  C7       1.0000 0.98306  0.68357  0.17499  Biso   1.000  C
  H5       1.0000 0.02240  0.66260  0.16420  Biso   1.000  H
  H6       1.0000 0.00060  0.68960  0.21900  Biso   1.000  H
  C8       1.0000 0.78289  0.55903  0.20562  Biso   1.000  C
  H7       1.0000 0.80470  0.57030  0.24840  Biso   1.000  H
  H8       1.0000 0.78440  0.51330  0.20270  Biso   1.000  H
  C9       1.0000 0.48405  0.77496  0.07081  Biso   1.000  C
  C10      1.0000 0.89377  0.67553  0.01417  Biso   1.000  C
  H9       1.0000 0.86280  0.67570  0.97150  Biso   1.000  H
  H10      1.0000 0.94050  0.65520  0.01690  Biso   1.000  H
  C11      1.0000 0.55632  0.64397  0.22876  Biso   1.000  C
  H11      1.0000 0.51160  0.61870  0.22140  Biso   1.000  H
  H12      1.0000 0.58310  0.64330  0.27240  Biso   1.000  H
  C12      1.0000 0.48042  0.65887  0.06882  Biso   1.000  C
  H13      1.0000 0.44150  0.63350  0.07580  Biso   1.000  H
  H14      1.0000 0.46600  0.66700  0.02520  Biso   1.000  H
  C13      1.0000 0.83089  0.56253  0.11393  Biso   1.000  C
  C14      1.0000 0.57710  0.75821  0.23983  Biso   1.000  C
  C15      1.0000 0.38120  0.71870  0.21690  Biso   1.000  C
  H15      1.0000 0.33010  0.70740  0.21190  Biso   1.000  H
  H16      1.0000 0.41330  0.69540  0.25170  Biso   1.000  H
  C16      1.0000 0.87186  0.98191  0.10597  Biso   1.000  C
  C17      1.0000 0.80666  0.01329  0.12382  Biso   1.000  C
  C18      1.0000 0.75649  0.95055  0.03626  Biso   1.000  C
  C19      1.0000 0.86488  0.90664  0.01594  Biso   1.000  C
  H17      1.0000 0.82790  0.90200  0.97570  Biso   1.000  H
  H18      1.0000 0.90500  0.93240  0.01160  Biso   1.000  H
  C20      1.0000 0.87679  0.94646  0.20350  Biso   1.000  C
  C21      1.0000 0.48142  0.05326  0.13823  Biso   1.000  C
  H19      1.0000 0.44670  0.07860  0.15100  Biso   1.000  H
  H20      1.0000 0.45520  0.03710  0.09760  Biso   1.000  H
  C22      1.0000 0.97463  0.79836  0.18052  Biso   1.000  C
  C23      1.0000 0.58976  0.61472  0.04906  Biso   1.000  C
  C24      1.0000 0.46631  0.88880  0.08517  Biso   1.000  C
  H21      1.0000 0.44770  0.88810  0.04080  Biso   1.000  H
  H22      1.0000 0.42830  0.90820  0.09880  Biso   1.000  H
  C25      1.0000 0.50773  0.99801  0.18213  Biso   1.000  C
  H23      1.0000 0.46540  0.97200  0.18120  Biso   1.000  H
  H24      1.0000 0.53020  0.01390  0.22340  Biso   1.000  H
  C26      1.0000 0.91913  0.03100  0.08808  Biso   1.000  C
  H25      1.0000 0.88880  0.05300  0.05160  Biso   1.000  H
  H26      1.0000 0.95930  0.01000  0.07860  Biso   1.000  H
  C27      1.0000 0.95913  0.56210  0.09904  Biso   1.000  C
  H27      1.0000 0.99970  0.58900  0.09740  Biso   1.000  H
  H28      1.0000 0.94200  0.53790  0.06140  Biso   1.000  H
  C28      1.0000 0.84860  0.49153  0.11620  Biso   1.000  C
  H29      1.0000 0.81070  0.46820  0.12670  Biso   1.000  H
  H30      1.0000 0.84800  0.47750  0.07620  Biso   1.000  H
  C29      1.0000 0.89569  0.60299  0.10436  Biso   1.000  C
  C30      1.0000 0.56564  0.94856  0.06399  Biso   1.000  C
  C31      1.0000 0.92510  0.47758  0.16342  Biso   1.000  C
  H31      1.0000 0.92320  0.48610  0.20400  Biso   1.000  H
  H32      1.0000 0.93640  0.43300  0.16150  Biso   1.000  H
  C32      1.0000 0.67879  0.91984  0.23033  Biso   1.000  C
  C33      1.0000 0.64596  0.54922  0.13375  Biso   1.000  C
  C34      1.0000 0.56430  0.95801  0.16477  Biso   1.000  C
  C35      1.0000 0.66710  0.01935  0.06153  Biso   1.000  C
  H33      1.0000 0.64130  0.01630  0.01780  Biso   1.000  H
  H34      1.0000 0.67180  0.06390  0.07210  Biso   1.000  H
  C36      1.0000 0.39860  0.69881  0.15978  Biso   1.000  C
  H35      1.0000 0.40190  0.65300  0.15870  Biso   1.000  H
  H36      1.0000 0.35830  0.71220  0.12370  Biso   1.000  H
  C37      1.0000 0.51560  0.53094  0.14141  Biso   1.000  C
  H37      1.0000 0.53200  0.50890  0.18030  Biso   1.000  H
  H38      1.0000 0.46880  0.55190  0.13750  Biso   1.000  H
  C38      1.0000 0.56868  0.87332  0.24517  Biso   1.000  C
  H39      1.0000 0.52700  0.89610  0.25040  Biso   1.000  H
  H40      1.0000 0.60420  0.86540  0.28550  Biso   1.000  H
  C39      1.0000 0.78382  0.62313  0.02478  Biso   1.000  C
  C40      1.0000 0.81515  0.08486  0.12990  Biso   1.000  C
  H41      1.0000 0.78070  0.10150  0.14900  Biso   1.000  H
  H42      1.0000 0.80320  0.10370  0.08960  Biso   1.000  H
  C41      1.0000 0.95180  0.07898  0.13930  Biso   1.000  C
  H43      1.0000 0.97060  0.11500  0.12290  Biso   1.000  H
  H44      1.0000 0.99350  0.05980  0.17060  Biso   1.000  H
  C42      1.0000 0.98720  0.51699  0.15320  Biso   1.000  C
  H45      1.0000 0.01170  0.54130  0.18990  Biso   1.000  H
  H46      1.0000 0.02390  0.48880  0.14640  Biso   1.000  H
  C43      1.0000 0.47119  0.72746  0.15841  Biso   1.000  C
  C44      1.0000 0.64560  0.47699  0.13839  Biso   1.000  C
  H47      1.0000 0.64890  0.46500  0.17960  Biso   1.000  H
  H48      1.0000 0.68890  0.46010  0.13040  Biso   1.000  H
  C45      1.0000 0.54640  0.09538  0.13571  Biso   1.000  C
  H49      1.0000 0.54360  0.10030  0.09340  Biso   1.000  H
  H50      1.0000 0.54090  0.13700  0.15140  Biso   1.000  H
  C46      1.0000 0.69458  0.54975  0.04251  Biso   1.000  C
  H51      1.0000 0.70200  0.50450  0.04850  Biso   1.000  H
  H52      1.0000 0.67130  0.55710  0.99900  Biso   1.000  H
  C47      1.0000 0.03640  0.83240  0.00721  Biso   1.000  C
  H53      1.0000 0.07550  0.85280  0.99570  Biso   1.000  H
  H54      1.0000 0.99010  0.83730  0.97360  Biso   1.000  H
  C48      1.0000 0.39160  0.78920  0.23061  Biso   1.000  C
  H55      1.0000 0.34770  0.80550  0.23800  Biso   1.000  H
  H56      1.0000 0.43370  0.79520  0.26770  Biso   1.000  H
  C49      1.0000 0.67754  0.61449  0.22045  Biso   1.000  C
  C50      1.0000 0.62261  0.06906  0.17215  Biso   1.000  C
  H57      1.0000 0.63050  0.07340  0.21550  Biso   1.000  H
  H58      1.0000 0.66090  0.09320  0.16290  Biso   1.000  H
  C51      1.0000 0.40446  0.82670  0.17957  Biso   1.000  C
  H59      1.0000 0.41170  0.87090  0.19120  Biso   1.000  H
  H60      1.0000 0.36090  0.82360  0.14310  Biso   1.000  H
  C52      1.0000 0.57350  0.58018  0.14016  Biso   1.000  C
  C53      1.0000 0.47229  0.80229  0.16568  Biso   1.000  C
  C54      1.0000 0.57510  0.44815  0.09300  Biso   1.000  C
  H61      1.0000 0.58000  0.44780  0.05260  Biso   1.000  H
  H62      1.0000 0.57070  0.40460  0.10460  Biso   1.000  H
  C55      1.0000 0.04662  0.73753  0.07720  Biso   1.000  C
  H63      1.0000 0.08850  0.75230  0.11130  Biso   1.000  H
  H64      1.0000 0.04770  0.69170  0.07730  Biso   1.000  H
  C56      1.0000 0.05440  0.76176  0.01789  Biso   1.000  C
  H65      1.0000 0.02120  0.73790  0.98400  Biso   1.000  H
  H66      1.0000 0.10490  0.75440  0.01850  Biso   1.000  H
  C57      1.0000 0.89500  0.10226  0.16857  Biso   1.000  C
  H67      1.0000 0.90640  0.08370  0.20890  Biso   1.000  H
  H68      1.0000 0.89890  0.14790  0.17330  Biso   1.000  H
  C58      1.0000 0.62921  0.99931  0.15709  Biso   1.000  C
  C59      1.0000 0.02959  0.86472  0.06363  Biso   1.000  C
  H69      1.0000 0.01820  0.90920  0.05490  Biso   1.000  H
  H70      1.0000 0.07670  0.86180  0.09670  Biso   1.000  H
  C60      1.0000 0.50370  0.48357  0.08960  Biso   1.000  C
  H71      1.0000 0.48520  0.50570  0.05090  Biso   1.000  H
  H72      1.0000 0.46610  0.45320  0.09110  Biso   1.000  H
  Tb2      1.0000 0.74218  0.71087  0.35334  Biso   1.000  Tb
  O13      1.0000 0.98166  0.70082  0.73459  Biso   1.000  O
  O14      1.0000 0.57700  0.85887  0.49957  Biso   1.000  O
  O15      1.0000 0.88912  0.84132  0.74667  Biso   1.000  O
  O16      1.0000 0.72472  0.61230  0.76932  Biso   1.000  O
  O17      1.0000 0.63567  0.74563  0.78206  Biso   1.000  O
  O18      1.0000 0.54756  0.56663  0.51030  Biso   1.000  O
  O19      1.0000 0.71534  0.85918  0.76803  Biso   1.000  O
  O20      1.0000 0.70916  0.57376  0.49173  Biso   1.000  O
  O21      1.0000 0.80922  0.71312  0.46149  Biso   1.000  O
  O22      1.0000 0.89903  0.58006  0.75282  Biso   1.000  O
  O23      1.0000 0.73907  0.85708  0.47681  Biso   1.000  O
  O24      1.0000 0.48812  0.71944  0.51916  Biso   1.000  O
  N25      1.0000 0.64420  0.92917  0.57388  Biso   1.000  N
  N26      1.0000 0.76657  0.91944  0.56255  Biso   1.000  N
  N27      1.0000 0.60347  0.58727  0.71183  Biso   1.000  N
  N28      1.0000 0.70541  0.92048  0.68392  Biso   1.000  N
  N29      1.0000 0.54911  0.87754  0.58733  Biso   1.000  N
  N30      1.0000 0.48476  0.78095  0.60054  Biso   1.000  N
  N31      1.0000 0.60249  0.88527  0.69743  Biso   1.000  N
  N32      1.0000 0.69602  0.53136  0.69907  Biso   1.000  N
  N33      1.0000 0.47683  0.67612  0.60719  Biso   1.000  N
  N34      1.0000 0.81400  0.51784  0.68179  Biso   1.000  N
  N35      1.0000 0.82743  0.91377  0.67222  Biso   1.000  N
  N36      1.0000 0.91889  0.85676  0.65867  Biso   1.000  N
  N37      1.0000 0.90883  0.75924  0.53505  Biso   1.000  N
  N38      1.0000 0.54196  0.68726  0.71600  Biso   1.000  N
  N39      1.0000 0.83122  0.56030  0.55529  Biso   1.000  N
  N40      1.0000 0.91313  0.55232  0.66126  Biso   1.000  N
  N41      1.0000 0.74059  0.50681  0.57468  Biso   1.000  N
  N42      1.0000 0.89418  0.65554  0.53816  Biso   1.000  N
  N43      1.0000 0.53475  0.79163  0.71055  Biso   1.000  N
  N44      1.0000 0.97199  0.64975  0.64496  Biso   1.000  N
  N45      1.0000 0.62186  0.51057  0.59306  Biso   1.000  N
  N46      1.0000 0.53249  0.57184  0.60484  Biso   1.000  N
  N47      1.0000 0.96942  0.75462  0.64545  Biso   1.000  N
  N48      1.0000 0.85704  0.86161  0.54864  Biso   1.000  N
  C61      1.0000 0.86489  0.70976  0.50733  Biso   1.000  C
  C62      1.0000 0.96839  0.66588  0.58338  Biso   1.000  C
  C63      1.0000 0.76944  0.50372  0.72001  Biso   1.000  C
  H73      1.0000 0.79550  0.51880  0.76110  Biso   1.000  H
  H74      1.0000 0.76460  0.45820  0.72210  Biso   1.000  H
  C64      1.0000 0.97425  0.74004  0.58536  Biso   1.000  C
  C65      1.0000 0.87891  0.86770  0.69701  Biso   1.000  C
  C66      1.0000 0.98211  0.58649  0.67101  Biso   1.000  C
  H75      1.0000 0.00820  0.58960  0.71460  Biso   1.000  H
  H76      1.0000 0.01330  0.56240  0.65330  Biso   1.000  H
  C67      1.0000 0.98306  0.81643  0.67499  Biso   1.000  C
  H77      1.0000 0.02240  0.83740  0.66420  Biso   1.000  H
  H78      1.0000 0.00060  0.81040  0.71900  Biso   1.000  H
  C68      1.0000 0.78289  0.94097  0.70562  Biso   1.000  C
  H79      1.0000 0.80470  0.92970  0.74840  Biso   1.000  H
  H80      1.0000 0.78440  0.98670  0.70270  Biso   1.000  H
  C69      1.0000 0.48405  0.72504  0.57081  Biso   1.000  C
  C70      1.0000 0.89377  0.82447  0.51417  Biso   1.000  C
  H81      1.0000 0.86280  0.82430  0.47150  Biso   1.000  H
  H82      1.0000 0.94050  0.84480  0.51690  Biso   1.000  H
  C71      1.0000 0.55632  0.85603  0.72876  Biso   1.000  C
  H83      1.0000 0.51160  0.88130  0.72140  Biso   1.000  H
  H84      1.0000 0.58310  0.85670  0.77240  Biso   1.000  H
  C72      1.0000 0.48042  0.84113  0.56882  Biso   1.000  C
  H85      1.0000 0.44150  0.86650  0.57580  Biso   1.000  H
  H86      1.0000 0.46600  0.83300  0.52520  Biso   1.000  H
  C73      1.0000 0.83089  0.93747  0.61393  Biso   1.000  C
  C74      1.0000 0.57710  0.74179  0.73983  Biso   1.000  C
  C75      1.0000 0.38120  0.78130  0.71690  Biso   1.000  C
  H87      1.0000 0.33010  0.79260  0.71190  Biso   1.000  H
  H88      1.0000 0.41330  0.80460  0.75170  Biso   1.000  H
  C76      1.0000 0.87186  0.51809  0.60597  Biso   1.000  C
  C77      1.0000 0.80666  0.48671  0.62382  Biso   1.000  C
  C78      1.0000 0.75649  0.54945  0.53626  Biso   1.000  C
  C79      1.0000 0.86488  0.59336  0.51594  Biso   1.000  C
  H89      1.0000 0.82790  0.59800  0.47570  Biso   1.000  H
  H90      1.0000 0.90500  0.56760  0.51160  Biso   1.000  H
  C80      1.0000 0.87679  0.55354  0.70350  Biso   1.000  C
  C81      1.0000 0.48142  0.44674  0.63823  Biso   1.000  C
  H91      1.0000 0.44670  0.42140  0.65100  Biso   1.000  H
  H92      1.0000 0.45520  0.46290  0.59760  Biso   1.000  H
  C82      1.0000 0.97463  0.70164  0.68052  Biso   1.000  C
  C83      1.0000 0.58976  0.88528  0.54906  Biso   1.000  C
  C84      1.0000 0.46631  0.61120  0.58517  Biso   1.000  C
  H93      1.0000 0.44770  0.61190  0.54080  Biso   1.000  H
  H94      1.0000 0.42830  0.59180  0.59880  Biso   1.000  H
  C85      1.0000 0.50773  0.50199  0.68213  Biso   1.000  C
  H95      1.0000 0.46540  0.52800  0.68120  Biso   1.000  H
  H96      1.0000 0.53020  0.48610  0.72340  Biso   1.000  H
  C86      1.0000 0.91913  0.46900  0.58808  Biso   1.000  C
  H97      1.0000 0.88880  0.44700  0.55160  Biso   1.000  H
  H98      1.0000 0.95930  0.49000  0.57860  Biso   1.000  H
  C87      1.0000 0.95913  0.93790  0.59904  Biso   1.000  C
  H99      1.0000 0.99970  0.91100  0.59740  Biso   1.000  H
  H100     1.0000 0.94200  0.96210  0.56140  Biso   1.000  H
  C88      1.0000 0.84860  0.00847  0.61620  Biso   1.000  C
  H101     1.0000 0.81070  0.03180  0.62670  Biso   1.000  H
  H102     1.0000 0.84800  0.02250  0.57620  Biso   1.000  H
  C89      1.0000 0.89569  0.89701  0.60436  Biso   1.000  C
  C90      1.0000 0.56564  0.55144  0.56399  Biso   1.000  C
  C91      1.0000 0.92510  0.02242  0.66342  Biso   1.000  C
  H103     1.0000 0.92320  0.01390  0.70400  Biso   1.000  H
  H104     1.0000 0.93640  0.06700  0.66150  Biso   1.000  H
  C92      1.0000 0.67879  0.58016  0.73033  Biso   1.000  C
  C93      1.0000 0.64596  0.95078  0.63375  Biso   1.000  C
  C94      1.0000 0.56430  0.54199  0.66477  Biso   1.000  C
  C95      1.0000 0.66710  0.48065  0.56153  Biso   1.000  C
  H105     1.0000 0.64130  0.48370  0.51780  Biso   1.000  H
  H106     1.0000 0.67180  0.43610  0.57210  Biso   1.000  H
  C96      1.0000 0.39860  0.80119  0.65978  Biso   1.000  C
  H107     1.0000 0.40190  0.84700  0.65870  Biso   1.000  H
  H108     1.0000 0.35830  0.78780  0.62370  Biso   1.000  H
  C97      1.0000 0.51560  0.96906  0.64141  Biso   1.000  C
  H109     1.0000 0.53200  0.99110  0.68030  Biso   1.000  H
  H110     1.0000 0.46880  0.94810  0.63750  Biso   1.000  H
  C98      1.0000 0.56868  0.62668  0.74517  Biso   1.000  C
  H111     1.0000 0.52700  0.60390  0.75040  Biso   1.000  H
  H112     1.0000 0.60420  0.63460  0.78550  Biso   1.000  H
  C99      1.0000 0.78382  0.87687  0.52478  Biso   1.000  C
  C100     1.0000 0.81515  0.41514  0.62990  Biso   1.000  C
  H113     1.0000 0.78070  0.39850  0.64900  Biso   1.000  H
  H114     1.0000 0.80320  0.39630  0.58960  Biso   1.000  H
  C101     1.0000 0.95180  0.42102  0.63930  Biso   1.000  C
  H115     1.0000 0.97060  0.38500  0.62290  Biso   1.000  H
  H116     1.0000 0.99350  0.44020  0.67060  Biso   1.000  H
  C102     1.0000 0.98720  0.98301  0.65320  Biso   1.000  C
  H117     1.0000 0.01170  0.95870  0.68990  Biso   1.000  H
  H118     1.0000 0.02390  0.01120  0.64640  Biso   1.000  H
  C103     1.0000 0.47119  0.77254  0.65841  Biso   1.000  C
  C104     1.0000 0.64560  0.02301  0.63839  Biso   1.000  C
  H119     1.0000 0.64890  0.03500  0.67960  Biso   1.000  H
  H120     1.0000 0.68890  0.03990  0.63040  Biso   1.000  H
  C105     1.0000 0.54640  0.40462  0.63571  Biso   1.000  C
  H121     1.0000 0.54360  0.39970  0.59340  Biso   1.000  H
  H122     1.0000 0.54090  0.36300  0.65140  Biso   1.000  H
  C106     1.0000 0.69458  0.95025  0.54251  Biso   1.000  C
  H123     1.0000 0.70200  0.99550  0.54850  Biso   1.000  H
  H124     1.0000 0.67130  0.94290  0.49900  Biso   1.000  H
  C107     1.0000 0.03640  0.66760  0.50721  Biso   1.000  C
  H125     1.0000 0.07550  0.64720  0.49570  Biso   1.000  H
  H126     1.0000 0.99010  0.66270  0.47360  Biso   1.000  H
  C108     1.0000 0.39160  0.71080  0.73061  Biso   1.000  C
  H127     1.0000 0.34770  0.69450  0.73800  Biso   1.000  H
  H128     1.0000 0.43370  0.70480  0.76770  Biso   1.000  H
  C109     1.0000 0.67754  0.88551  0.72045  Biso   1.000  C
  C110     1.0000 0.62261  0.43094  0.67215  Biso   1.000  C
  H129     1.0000 0.63050  0.42660  0.71550  Biso   1.000  H
  H130     1.0000 0.66090  0.40680  0.66290  Biso   1.000  H
  C111     1.0000 0.40446  0.67330  0.67957  Biso   1.000  C
  H131     1.0000 0.41170  0.62910  0.69120  Biso   1.000  H
  H132     1.0000 0.36090  0.67640  0.64310  Biso   1.000  H
  C112     1.0000 0.57350  0.91982  0.64016  Biso   1.000  C
  C113     1.0000 0.47229  0.69771  0.66568  Biso   1.000  C
  C114     1.0000 0.57510  0.05185  0.59300  Biso   1.000  C
  H133     1.0000 0.58000  0.05220  0.55260  Biso   1.000  H
  H134     1.0000 0.57070  0.09540  0.60460  Biso   1.000  H
  C115     1.0000 0.04662  0.76247  0.57720  Biso   1.000  C
  H135     1.0000 0.08850  0.74770  0.61130  Biso   1.000  H
  H136     1.0000 0.04770  0.80830  0.57730  Biso   1.000  H
  C116     1.0000 0.05440  0.73824  0.51789  Biso   1.000  C
  H137     1.0000 0.02120  0.76210  0.48400  Biso   1.000  H
  H138     1.0000 0.10490  0.74560  0.51850  Biso   1.000  H
  C117     1.0000 0.89500  0.39774  0.66857  Biso   1.000  C
  H139     1.0000 0.90640  0.41630  0.70890  Biso   1.000  H
  H140     1.0000 0.89890  0.35210  0.67330  Biso   1.000  H
  C118     1.0000 0.62921  0.50069  0.65709  Biso   1.000  C
  C119     1.0000 0.02959  0.63528  0.56363  Biso   1.000  C
  H141     1.0000 0.01820  0.59080  0.55490  Biso   1.000  H
  H142     1.0000 0.07670  0.63820  0.59670  Biso   1.000  H
  C120     1.0000 0.50370  0.01643  0.58960  Biso   1.000  C
  H143     1.0000 0.48520  0.99430  0.55090  Biso   1.000  H
  H144     1.0000 0.46610  0.04680  0.59110  Biso   1.000  H
  Tb3      1.0000 0.25782  0.28913  0.64666  Biso   1.000  Tb
  O25      1.0000 0.01834  0.29918  0.26541  Biso   1.000  O
  O26      1.0000 0.42300  0.14113  0.50043  Biso   1.000  O
  O27      1.0000 0.11088  0.15868  0.25333  Biso   1.000  O
  O28      1.0000 0.27528  0.38770  0.23068  Biso   1.000  O
  O29      1.0000 0.36433  0.25437  0.21794  Biso   1.000  O
  O30      1.0000 0.45244  0.43337  0.48970  Biso   1.000  O
  O31      1.0000 0.28466  0.14082  0.23197  Biso   1.000  O
  O32      1.0000 0.29084  0.42624  0.50827  Biso   1.000  O
  O33      1.0000 0.19078  0.28688  0.53851  Biso   1.000  O
  O34      1.0000 0.10097  0.41994  0.24718  Biso   1.000  O
  O35      1.0000 0.26093  0.14292  0.52319  Biso   1.000  O
  O36      1.0000 0.51188  0.28056  0.48084  Biso   1.000  O
  N49      1.0000 0.35580  0.07083  0.42612  Biso   1.000  N
  N50      1.0000 0.23343  0.08056  0.43745  Biso   1.000  N
  N51      1.0000 0.39653  0.41273  0.28817  Biso   1.000  N
  N52      1.0000 0.29459  0.07952  0.31608  Biso   1.000  N
  N53      1.0000 0.45089  0.12246  0.41267  Biso   1.000  N
  N54      1.0000 0.51524  0.21905  0.39946  Biso   1.000  N
  N55      1.0000 0.39751  0.11473  0.30257  Biso   1.000  N
  N56      1.0000 0.30398  0.46864  0.30093  Biso   1.000  N
  N57      1.0000 0.52317  0.32388  0.39281  Biso   1.000  N
  N58      1.0000 0.18600  0.48216  0.31821  Biso   1.000  N
  N59      1.0000 0.17257  0.08623  0.32778  Biso   1.000  N
  N60      1.0000 0.08111  0.14324  0.34133  Biso   1.000  N
  N61      1.0000 0.09117  0.24076  0.46495  Biso   1.000  N
  N62      1.0000 0.45804  0.31274  0.28400  Biso   1.000  N
  N63      1.0000 0.16878  0.43970  0.44471  Biso   1.000  N
  N64      1.0000 0.08687  0.44768  0.33874  Biso   1.000  N
  N65      1.0000 0.25941  0.49319  0.42532  Biso   1.000  N
  N66      1.0000 0.10582  0.34446  0.46184  Biso   1.000  N
  N67      1.0000 0.46525  0.20837  0.28945  Biso   1.000  N
  N68      1.0000 0.02801  0.35025  0.35504  Biso   1.000  N
  N69      1.0000 0.37814  0.48943  0.40694  Biso   1.000  N
  N70      1.0000 0.46751  0.42816  0.39516  Biso   1.000  N
  N71      1.0000 0.03058  0.24538  0.35455  Biso   1.000  N
  N72      1.0000 0.14296  0.13839  0.45136  Biso   1.000  N
  C121     1.0000 0.13511  0.29024  0.49267  Biso   1.000  C
  C122     1.0000 0.03161  0.33412  0.41662  Biso   1.000  C
  C123     1.0000 0.23056  0.49628  0.27999  Biso   1.000  C
  H145     1.0000 0.20450  0.48120  0.23890  Biso   1.000  H
  H146     1.0000 0.23540  0.54180  0.27790  Biso   1.000  H
  C124     1.0000 0.02575  0.25996  0.41464  Biso   1.000  C
  C125     1.0000 0.12109  0.13230  0.30299  Biso   1.000  C
  C126     1.0000 0.01789  0.41351  0.32899  Biso   1.000  C
  H147     1.0000 0.99180  0.41040  0.28540  Biso   1.000  H
  H148     1.0000 0.98670  0.43760  0.34670  Biso   1.000  H
  C127     1.0000 0.01694  0.18357  0.32501  Biso   1.000  C
  H149     1.0000 0.97760  0.16260  0.33580  Biso   1.000  H
  H150     1.0000 0.99940  0.18960  0.28100  Biso   1.000  H
  C128     1.0000 0.21711  0.05903  0.29438  Biso   1.000  C
  H151     1.0000 0.19530  0.07030  0.25160  Biso   1.000  H
  H152     1.0000 0.21560  0.01330  0.29730  Biso   1.000  H
  C129     1.0000 0.51595  0.27496  0.42919  Biso   1.000  C
  C130     1.0000 0.10623  0.17553  0.48583  Biso   1.000  C
  H153     1.0000 0.13720  0.17570  0.52850  Biso   1.000  H
  H154     1.0000 0.05950  0.15520  0.48310  Biso   1.000  H
  C131     1.0000 0.44368  0.14397  0.27124  Biso   1.000  C
  H155     1.0000 0.48840  0.11870  0.27860  Biso   1.000  H
  H156     1.0000 0.41690  0.14330  0.22760  Biso   1.000  H
  C132     1.0000 0.51958  0.15887  0.43118  Biso   1.000  C
  H157     1.0000 0.55850  0.13350  0.42420  Biso   1.000  H
  H158     1.0000 0.53400  0.16700  0.47480  Biso   1.000  H
  C133     1.0000 0.16911  0.06253  0.38607  Biso   1.000  C
  C134     1.0000 0.42290  0.25821  0.26017  Biso   1.000  C
  C135     1.0000 0.61880  0.21870  0.28310  Biso   1.000  C
  H159     1.0000 0.66990  0.20740  0.28810  Biso   1.000  H
  H160     1.0000 0.58670  0.19540  0.24830  Biso   1.000  H
  C136     1.0000 0.12814  0.48191  0.39403  Biso   1.000  C
  C137     1.0000 0.19334  0.51329  0.37618  Biso   1.000  C
  C138     1.0000 0.24351  0.45055  0.46374  Biso   1.000  C
  C139     1.0000 0.13512  0.40664  0.48406  Biso   1.000  C
  H161     1.0000 0.17210  0.40200  0.52430  Biso   1.000  H
  H162     1.0000 0.09500  0.43240  0.48840  Biso   1.000  H
  C140     1.0000 0.12321  0.44646  0.29650  Biso   1.000  C
  C141     1.0000 0.51858  0.55326  0.36177  Biso   1.000  C
  H163     1.0000 0.55330  0.57860  0.34900  Biso   1.000  H
  H164     1.0000 0.54480  0.53710  0.40240  Biso   1.000  H
  C142     1.0000 0.02537  0.29836  0.31948  Biso   1.000  C
  C143     1.0000 0.41024  0.11472  0.45094  Biso   1.000  C
  C144     1.0000 0.53369  0.38880  0.41483  Biso   1.000  C
  H165     1.0000 0.55230  0.38810  0.45920  Biso   1.000  H
  H166     1.0000 0.57170  0.40820  0.40120  Biso   1.000  H
  C145     1.0000 0.49227  0.49801  0.31787  Biso   1.000  C
  H167     1.0000 0.53460  0.47200  0.31880  Biso   1.000  H
  H168     1.0000 0.46980  0.51390  0.27660  Biso   1.000  H
  C146     1.0000 0.08087  0.53100  0.41192  Biso   1.000  C
  H169     1.0000 0.11120  0.55300  0.44840  Biso   1.000  H
  H170     1.0000 0.04070  0.51000  0.42140  Biso   1.000  H
  C147     1.0000 0.04087  0.06210  0.40096  Biso   1.000  C
  H171     1.0000 0.00030  0.08900  0.40260  Biso   1.000  H
  H172     1.0000 0.05800  0.03790  0.43860  Biso   1.000  H
  C148     1.0000 0.15140  0.99153  0.38380  Biso   1.000  C
  H173     1.0000 0.18930  0.96820  0.37330  Biso   1.000  H
  H174     1.0000 0.15200  0.97750  0.42380  Biso   1.000  H
  C149     1.0000 0.10431  0.10299  0.39564  Biso   1.000  C
  C150     1.0000 0.43436  0.44856  0.43601  Biso   1.000  C
  C151     1.0000 0.07490  0.97758  0.33658  Biso   1.000  C
  H175     1.0000 0.07680  0.98610  0.29600  Biso   1.000  H
  H176     1.0000 0.06360  0.93300  0.33850  Biso   1.000  H
  C152     1.0000 0.32121  0.41984  0.26967  Biso   1.000  C
  C153     1.0000 0.35404  0.04922  0.36625  Biso   1.000  C
  C154     1.0000 0.43570  0.45801  0.33523  Biso   1.000  C
  C155     1.0000 0.33290  0.51935  0.43847  Biso   1.000  C
  H177     1.0000 0.35870  0.51630  0.48220  Biso   1.000  H
  H178     1.0000 0.32820  0.56390  0.42790  Biso   1.000  H
  C156     1.0000 0.60140  0.19881  0.34022  Biso   1.000  C
  H179     1.0000 0.59810  0.15300  0.34130  Biso   1.000  H
  H180     1.0000 0.64170  0.21220  0.37630  Biso   1.000  H
  C157     1.0000 0.48440  0.03094  0.35859  Biso   1.000  C
  H181     1.0000 0.46800  0.00890  0.31970  Biso   1.000  H
  H182     1.0000 0.53120  0.05190  0.36250  Biso   1.000  H
  C158     1.0000 0.43132  0.37332  0.25483  Biso   1.000  C
  H183     1.0000 0.47300  0.39610  0.24960  Biso   1.000  H
  H184     1.0000 0.39580  0.36540  0.21450  Biso   1.000  H
  C159     1.0000 0.21618  0.12313  0.47522  Biso   1.000  C
  C160     1.0000 0.18485  0.58486  0.37010  Biso   1.000  C
  H185     1.0000 0.21930  0.60150  0.35100  Biso   1.000  H
  H186     1.0000 0.19680  0.60370  0.41040  Biso   1.000  H
  C161     1.0000 0.04820  0.57898  0.36070  Biso   1.000  C
  H187     1.0000 0.02940  0.61500  0.37710  Biso   1.000  H
  H188     1.0000 0.00650  0.55980  0.32940  Biso   1.000  H
  C162     1.0000 0.01280  0.01699  0.34680  Biso   1.000  C
  H189     1.0000 0.98830  0.04130  0.31010  Biso   1.000  H
  H190     1.0000 0.97610  0.98880  0.35360  Biso   1.000  H
  C163     1.0000 0.52881  0.22746  0.34159  Biso   1.000  C
  C164     1.0000 0.35440  0.97699  0.36161  Biso   1.000  C
  H191     1.0000 0.35110  0.96500  0.32040  Biso   1.000  H
  H192     1.0000 0.31110  0.96010  0.36960  Biso   1.000  H
  C165     1.0000 0.45360  0.59538  0.36429  Biso   1.000  C
  H193     1.0000 0.45640  0.60030  0.40660  Biso   1.000  H
  H194     1.0000 0.45910  0.63700  0.34860  Biso   1.000  H
  C166     1.0000 0.30542  0.04975  0.45749  Biso   1.000  C
  H195     1.0000 0.29800  0.00450  0.45150  Biso   1.000  H
  H196     1.0000 0.32870  0.05710  0.50100  Biso   1.000  H
  C167     1.0000 0.96360  0.33240  0.49279  Biso   1.000  C
  H197     1.0000 0.92450  0.35280  0.50430  Biso   1.000  H
  H198     1.0000 0.00990  0.33730  0.52640  Biso   1.000  H
  C168     1.0000 0.60840  0.28920  0.26939  Biso   1.000  C
  H199     1.0000 0.65230  0.30550  0.26200  Biso   1.000  H
  H200     1.0000 0.56630  0.29520  0.23230  Biso   1.000  H
  C169     1.0000 0.32246  0.11449  0.27955  Biso   1.000  C
  C170     1.0000 0.37739  0.56906  0.32785  Biso   1.000  C
  H201     1.0000 0.36950  0.57340  0.28450  Biso   1.000  H
  H202     1.0000 0.33910  0.59320  0.33710  Biso   1.000  H
  C171     1.0000 0.59554  0.32670  0.32043  Biso   1.000  C
  H203     1.0000 0.58830  0.37090  0.30880  Biso   1.000  H
  H204     1.0000 0.63910  0.32360  0.35690  Biso   1.000  H
  C172     1.0000 0.42650  0.08018  0.35984  Biso   1.000  C
  C173     1.0000 0.52771  0.30229  0.33432  Biso   1.000  C
  C174     1.0000 0.42490  0.94815  0.40700  Biso   1.000  C
  H205     1.0000 0.42000  0.94780  0.44740  Biso   1.000  H
  H206     1.0000 0.42930  0.90460  0.39540  Biso   1.000  H
  C175     1.0000 0.95338  0.23753  0.42280  Biso   1.000  C
  H207     1.0000 0.91150  0.25230  0.38870  Biso   1.000  H
  H208     1.0000 0.95230  0.19170  0.42270  Biso   1.000  H
  C176     1.0000 0.94560  0.26176  0.48211  Biso   1.000  C
  H209     1.0000 0.97880  0.23790  0.51600  Biso   1.000  H
  H210     1.0000 0.89510  0.25440  0.48150  Biso   1.000  H
  C177     1.0000 0.10500  0.60226  0.33143  Biso   1.000  C
  H211     1.0000 0.09360  0.58370  0.29110  Biso   1.000  H
  H212     1.0000 0.10110  0.64790  0.32670  Biso   1.000  H
  C178     1.0000 0.37079  0.49931  0.34291  Biso   1.000  C
  C179     1.0000 0.97041  0.36472  0.43637  Biso   1.000  C
  H213     1.0000 0.98180  0.40920  0.44510  Biso   1.000  H
  H214     1.0000 0.92330  0.36180  0.40330  Biso   1.000  H
  C180     1.0000 0.49630  0.98357  0.41040  Biso   1.000  C
  H215     1.0000 0.51480  0.00570  0.44910  Biso   1.000  H
  H216     1.0000 0.53390  0.95320  0.40890  Biso   1.000  H
  Tb4      1.0000 0.25782  0.21087  0.14666  Biso   1.000  Tb
  O37      1.0000 0.01834  0.20082  0.76541  Biso   1.000  O
  O38      1.0000 0.42300  0.35887  0.00043  Biso   1.000  O
  O39      1.0000 0.11088  0.34132  0.75333  Biso   1.000  O
  O40      1.0000 0.27528  0.11230  0.73068  Biso   1.000  O
  O41      1.0000 0.36433  0.24563  0.71794  Biso   1.000  O
  O42      1.0000 0.45244  0.06663  0.98970  Biso   1.000  O
  O43      1.0000 0.28466  0.35918  0.73197  Biso   1.000  O
  O44      1.0000 0.29084  0.07376  0.00827  Biso   1.000  O
  O45      1.0000 0.19078  0.21312  0.03851  Biso   1.000  O
  O46      1.0000 0.10097  0.08006  0.74718  Biso   1.000  O
  O47      1.0000 0.26093  0.35708  0.02319  Biso   1.000  O
  O48      1.0000 0.51188  0.21944  0.98084  Biso   1.000  O
  N73      1.0000 0.35580  0.42917  0.92612  Biso   1.000  N
  N74      1.0000 0.23343  0.41944  0.93745  Biso   1.000  N
  N75      1.0000 0.39653  0.08727  0.78817  Biso   1.000  N
  N76      1.0000 0.29459  0.42048  0.81608  Biso   1.000  N
  N77      1.0000 0.45089  0.37754  0.91267  Biso   1.000  N
  N78      1.0000 0.51524  0.28095  0.89946  Biso   1.000  N
  N79      1.0000 0.39751  0.38527  0.80257  Biso   1.000  N
  N80      1.0000 0.30398  0.03136  0.80093  Biso   1.000  N
  N81      1.0000 0.52317  0.17612  0.89281  Biso   1.000  N
  N82      1.0000 0.18600  0.01784  0.81821  Biso   1.000  N
  N83      1.0000 0.17257  0.41377  0.82778  Biso   1.000  N
  N84      1.0000 0.08111  0.35676  0.84133  Biso   1.000  N
  N85      1.0000 0.09117  0.25924  0.96495  Biso   1.000  N
  N86      1.0000 0.45804  0.18726  0.78400  Biso   1.000  N
  N87      1.0000 0.16878  0.06030  0.94471  Biso   1.000  N
  N88      1.0000 0.08687  0.05232  0.83874  Biso   1.000  N
  N89      1.0000 0.25941  0.00681  0.92532  Biso   1.000  N
  N90      1.0000 0.10582  0.15554  0.96184  Biso   1.000  N
  N91      1.0000 0.46525  0.29163  0.78945  Biso   1.000  N
  N92      1.0000 0.02801  0.14975  0.85504  Biso   1.000  N
  N93      1.0000 0.37814  0.01057  0.90694  Biso   1.000  N
  N94      1.0000 0.46751  0.07184  0.89516  Biso   1.000  N
  N95      1.0000 0.03058  0.25462  0.85455  Biso   1.000  N
  N96      1.0000 0.14296  0.36161  0.95136  Biso   1.000  N
  C181     1.0000 0.13511  0.20976  0.99267  Biso   1.000  C
  C182     1.0000 0.03161  0.16588  0.91662  Biso   1.000  C
  C183     1.0000 0.23056  0.00372  0.77999  Biso   1.000  C
  H217     1.0000 0.20450  0.01880  0.73890  Biso   1.000  H
  H218     1.0000 0.23540  0.95820  0.77790  Biso   1.000  H
  C184     1.0000 0.02575  0.24004  0.91464  Biso   1.000  C
  C185     1.0000 0.12109  0.36770  0.80299  Biso   1.000  C
  C186     1.0000 0.01789  0.08649  0.82899  Biso   1.000  C
  H219     1.0000 0.99180  0.08960  0.78540  Biso   1.000  H
  H220     1.0000 0.98670  0.06240  0.84670  Biso   1.000  H
  C187     1.0000 0.01694  0.31643  0.82501  Biso   1.000  C
  H221     1.0000 0.97760  0.33740  0.83580  Biso   1.000  H
  H222     1.0000 0.99940  0.31040  0.78100  Biso   1.000  H
  C188     1.0000 0.21711  0.44097  0.79438  Biso   1.000  C
  H223     1.0000 0.19530  0.42970  0.75160  Biso   1.000  H
  H224     1.0000 0.21560  0.48670  0.79730  Biso   1.000  H
  C189     1.0000 0.51595  0.22504  0.92919  Biso   1.000  C
  C190     1.0000 0.10623  0.32447  0.98583  Biso   1.000  C
  H225     1.0000 0.13720  0.32430  0.02850  Biso   1.000  H
  H226     1.0000 0.05950  0.34480  0.98310  Biso   1.000  H
  C191     1.0000 0.44368  0.35603  0.77124  Biso   1.000  C
  H227     1.0000 0.48840  0.38130  0.77860  Biso   1.000  H
  H228     1.0000 0.41690  0.35670  0.72760  Biso   1.000  H
  C192     1.0000 0.51958  0.34113  0.93118  Biso   1.000  C
  H229     1.0000 0.55850  0.36650  0.92420  Biso   1.000  H
  H230     1.0000 0.53400  0.33300  0.97480  Biso   1.000  H
  C193     1.0000 0.16911  0.43747  0.88607  Biso   1.000  C
  C194     1.0000 0.42290  0.24179  0.76017  Biso   1.000  C
  C195     1.0000 0.61880  0.28130  0.78310  Biso   1.000  C
  H231     1.0000 0.66990  0.29260  0.78810  Biso   1.000  H
  H232     1.0000 0.58670  0.30460  0.74830  Biso   1.000  H
  C196     1.0000 0.12814  0.01809  0.89403  Biso   1.000  C
  C197     1.0000 0.19334  0.98671  0.87618  Biso   1.000  C
  C198     1.0000 0.24351  0.04945  0.96374  Biso   1.000  C
  C199     1.0000 0.13512  0.09336  0.98406  Biso   1.000  C
  H233     1.0000 0.17210  0.09800  0.02430  Biso   1.000  H
  H234     1.0000 0.09500  0.06760  0.98840  Biso   1.000  H
  C200     1.0000 0.12321  0.05354  0.79650  Biso   1.000  C
  C201     1.0000 0.51858  0.94674  0.86177  Biso   1.000  C
  H235     1.0000 0.55330  0.92140  0.84900  Biso   1.000  H
  H236     1.0000 0.54480  0.96290  0.90240  Biso   1.000  H
  C202     1.0000 0.02537  0.20164  0.81948  Biso   1.000  C
  C203     1.0000 0.41024  0.38528  0.95094  Biso   1.000  C
  C204     1.0000 0.53369  0.11120  0.91483  Biso   1.000  C
  H237     1.0000 0.55230  0.11190  0.95920  Biso   1.000  H
  H238     1.0000 0.57170  0.09180  0.90120  Biso   1.000  H
  C205     1.0000 0.49227  0.00199  0.81787  Biso   1.000  C
  H239     1.0000 0.53460  0.02800  0.81880  Biso   1.000  H
  H240     1.0000 0.46980  0.98610  0.77660  Biso   1.000  H
  C206     1.0000 0.08087  0.96900  0.91192  Biso   1.000  C
  H241     1.0000 0.11120  0.94700  0.94840  Biso   1.000  H
  H242     1.0000 0.04070  0.99000  0.92140  Biso   1.000  H
  C207     1.0000 0.04087  0.43790  0.90096  Biso   1.000  C
  H243     1.0000 0.00030  0.41100  0.90260  Biso   1.000  H
  H244     1.0000 0.05800  0.46210  0.93860  Biso   1.000  H
  C208     1.0000 0.15140  0.50847  0.88380  Biso   1.000  C
  H245     1.0000 0.18930  0.53180  0.87330  Biso   1.000  H
  H246     1.0000 0.15200  0.52250  0.92380  Biso   1.000  H
  C209     1.0000 0.10431  0.39701  0.89564  Biso   1.000  C
  C210     1.0000 0.43436  0.05144  0.93601  Biso   1.000  C
  C211     1.0000 0.07490  0.52242  0.83658  Biso   1.000  C
  H247     1.0000 0.07680  0.51390  0.79600  Biso   1.000  H
  H248     1.0000 0.06360  0.56700  0.83850  Biso   1.000  H
  C212     1.0000 0.32121  0.08016  0.76967  Biso   1.000  C
  C213     1.0000 0.35404  0.45078  0.86625  Biso   1.000  C
  C214     1.0000 0.43570  0.04199  0.83523  Biso   1.000  C
  C215     1.0000 0.33290  0.98065  0.93847  Biso   1.000  C
  H249     1.0000 0.35870  0.98370  0.98220  Biso   1.000  H
  H250     1.0000 0.32820  0.93610  0.92790  Biso   1.000  H
  C216     1.0000 0.60140  0.30119  0.84022  Biso   1.000  C
  H251     1.0000 0.59810  0.34700  0.84130  Biso   1.000  H
  H252     1.0000 0.64170  0.28780  0.87630  Biso   1.000  H
  C217     1.0000 0.48440  0.46906  0.85859  Biso   1.000  C
  H253     1.0000 0.46800  0.49110  0.81970  Biso   1.000  H
  H254     1.0000 0.53120  0.44810  0.86250  Biso   1.000  H
  C218     1.0000 0.43132  0.12668  0.75483  Biso   1.000  C
  H255     1.0000 0.47300  0.10390  0.74960  Biso   1.000  H
  H256     1.0000 0.39580  0.13460  0.71450  Biso   1.000  H
  C219     1.0000 0.21618  0.37687  0.97522  Biso   1.000  C
  C220     1.0000 0.18485  0.91514  0.87010  Biso   1.000  C
  H257     1.0000 0.21930  0.89850  0.85100  Biso   1.000  H
  H258     1.0000 0.19680  0.89630  0.91040  Biso   1.000  H
  C221     1.0000 0.04820  0.92102  0.86070  Biso   1.000  C
  H259     1.0000 0.02940  0.88500  0.87710  Biso   1.000  H
  H260     1.0000 0.00650  0.94020  0.82940  Biso   1.000  H
  C222     1.0000 0.01280  0.48301  0.84680  Biso   1.000  C
  H261     1.0000 0.98830  0.45870  0.81010  Biso   1.000  H
  H262     1.0000 0.97610  0.51120  0.85360  Biso   1.000  H
  C223     1.0000 0.52881  0.27254  0.84159  Biso   1.000  C
  C224     1.0000 0.35440  0.52301  0.86161  Biso   1.000  C
  H263     1.0000 0.35110  0.53500  0.82040  Biso   1.000  H
  H264     1.0000 0.31110  0.53990  0.86960  Biso   1.000  H
  C225     1.0000 0.45360  0.90462  0.86429  Biso   1.000  C
  H265     1.0000 0.45640  0.89970  0.90660  Biso   1.000  H
  H266     1.0000 0.45910  0.86300  0.84860  Biso   1.000  H
  C226     1.0000 0.30542  0.45025  0.95749  Biso   1.000  C
  H267     1.0000 0.29800  0.49550  0.95150  Biso   1.000  H
  H268     1.0000 0.32870  0.44290  0.00100  Biso   1.000  H
  C227     1.0000 0.96360  0.16760  0.99279  Biso   1.000  C
  H269     1.0000 0.92450  0.14720  0.00430  Biso   1.000  H
  H270     1.0000 0.00990  0.16270  0.02640  Biso   1.000  H
  C228     1.0000 0.60840  0.21080  0.76939  Biso   1.000  C
  H271     1.0000 0.65230  0.19450  0.76200  Biso   1.000  H
  H272     1.0000 0.56630  0.20480  0.73230  Biso   1.000  H
  C229     1.0000 0.32246  0.38551  0.77955  Biso   1.000  C
  C230     1.0000 0.37739  0.93094  0.82785  Biso   1.000  C
  H273     1.0000 0.36950  0.92660  0.78450  Biso   1.000  H
  H274     1.0000 0.33910  0.90680  0.83710  Biso   1.000  H
  C231     1.0000 0.59554  0.17330  0.82043  Biso   1.000  C
  H275     1.0000 0.58830  0.12910  0.80880  Biso   1.000  H
  H276     1.0000 0.63910  0.17640  0.85690  Biso   1.000  H
  C232     1.0000 0.42650  0.41982  0.85984  Biso   1.000  C
  C233     1.0000 0.52771  0.19771  0.83432  Biso   1.000  C
  C234     1.0000 0.42490  0.55185  0.90700  Biso   1.000  C
  H277     1.0000 0.42000  0.55220  0.94740  Biso   1.000  H
  H278     1.0000 0.42930  0.59540  0.89540  Biso   1.000  H
  C235     1.0000 0.95338  0.26247  0.92280  Biso   1.000  C
  H279     1.0000 0.91150  0.24770  0.88870  Biso   1.000  H
  H280     1.0000 0.95230  0.30830  0.92270  Biso   1.000  H
  C236     1.0000 0.94560  0.23824  0.98211  Biso   1.000  C
  H281     1.0000 0.97880  0.26210  0.01600  Biso   1.000  H
  H282     1.0000 0.89510  0.24560  0.98150  Biso   1.000  H
  C237     1.0000 0.10500  0.89774  0.83143  Biso   1.000  C
  H283     1.0000 0.09360  0.91630  0.79110  Biso   1.000  H
  H284     1.0000 0.10110  0.85210  0.82670  Biso   1.000  H
  C238     1.0000 0.37079  0.00069  0.84291  Biso   1.000  C
  C239     1.0000 0.97041  0.13528  0.93637  Biso   1.000  C
  H285     1.0000 0.98180  0.09080  0.94510  Biso   1.000  H
  H286     1.0000 0.92330  0.13820  0.90330  Biso   1.000  H
  C240     1.0000 0.49630  0.51643  0.91040  Biso   1.000  C
  H287     1.0000 0.51480  0.49430  0.94910  Biso   1.000  H
  H288     1.0000 0.53390  0.54680  0.90890  Biso   1.000  H
