data_image0
_cell_length_a       18.916
_cell_length_b       21.139
_cell_length_c       23.229
_cell_angle_alpha    90
_cell_angle_beta     109.079
_cell_angle_gamma    90

_symmetry_space_group_name_H-M    "P 1"
_symmetry_int_tables_number       1

loop_
  _symmetry_equiv_pos_as_xyz
  'x, y, z'

loop_
  _atom_site_label
  _atom_site_occupancy
  _atom_site_fract_x
  _atom_site_fract_y
  _atom_site_fract_z
  _atom_site_thermal_displace_type
  _atom_site_B_iso_or_equiv
  _atom_site_type_symbol
  Nd1      1.0000 0.75180  0.28422  0.14593  Biso   1.000  Nd
  C1       1.0000 0.82260  0.38330  0.28072  Biso   1.000  C
  C2       1.0000 0.85510  0.44700  0.36570  Biso   1.000  C
  C3       1.0000 0.92590  0.41580  0.35910  Biso   1.000  C
  C4       1.0000 0.90930  0.38230  0.45030  Biso   1.000  C
  C5       1.0000 0.94280  0.35180  0.27160  Biso   1.000  C
  H1       1.0000 0.91590  0.35250  0.22820  Biso   1.000  H
  H2       1.0000 0.98800  0.37660  0.27870  Biso   1.000  H
  C6       1.0000 0.01760  0.33690  0.43100  Biso   1.000  C
  H3       1.0000 0.03140  0.32860  0.47440  Biso   1.000  H
  H4       1.0000 0.05730  0.36180  0.42440  Biso   1.000  H
  C7       1.0000 0.92180  0.23830  0.26080  Biso   1.000  C
  C8       1.0000 0.02670  0.26800  0.34160  Biso   1.000  C
  C9       1.0000 0.02460  0.19430  0.33430  Biso   1.000  C
  C10      1.0000 0.01410  0.22070  0.42900  Biso   1.000  C
  C11      1.0000 0.92830  0.12370  0.25732  Biso   1.000  C
  H5       1.0000 0.89300  0.13120  0.21690  Biso   1.000  H
  H6       1.0000 0.97060  0.10100  0.25250  Biso   1.000  H
  C12      1.0000 0.03210  0.10790  0.41450  Biso   1.000  C
  H7       1.0000 0.06970  0.08840  0.40020  Biso   1.000  H
  H8       1.0000 0.05160  0.10880  0.45870  Biso   1.000  H
  C13      1.0000 0.81880  0.07720  0.27230  Biso   1.000  C
  C14      1.0000 0.93410  0.03980  0.33647  Biso   1.000  C
  C15      1.0000 0.86850  0.99880  0.34540  Biso   1.000  C
  C16      1.0000 0.93330  0.05030  0.43750  Biso   1.000  C
  C17      1.0000 0.72830  0.00080  0.28250  Biso   1.000  C
  H9       1.0000 0.70230  0.01560  0.24150  Biso   1.000  H
  H10      1.0000 0.73290  0.95520  0.28080  Biso   1.000  H
  C18      1.0000 0.83170  0.98040  0.44090  Biso   1.000  C
  H11      1.0000 0.85770  0.98470  0.48420  Biso   1.000  H
  H12      1.0000 0.82700  0.93560  0.43150  Biso   1.000  H
  C19      1.0000 0.62140  0.05220  0.29940  Biso   1.000  C
  C20      1.0000 0.69160  0.98610  0.37915  Biso   1.000  C
  C21      1.0000 0.62590  0.01770  0.39590  Biso   1.000  C
  C22      1.0000 0.74220  0.04970  0.46487  Biso   1.000  C
  C23      1.0000 0.51550  0.08620  0.33050  Biso   1.000  C
  H13      1.0000 0.48960  0.08840  0.28690  Biso   1.000  H
  H14      1.0000 0.48420  0.06260  0.34850  Biso   1.000  H
  C24      1.0000 0.63220  0.09400  0.48355  Biso   1.000  C
  H15      1.0000 0.66880  0.09890  0.52380  Biso   1.000  H
  H16      1.0000 0.59150  0.06860  0.48790  Biso   1.000  H
  C25      1.0000 0.52350  0.20020  0.31930  Biso   1.000  C
  C26      1.0000 0.52970  0.16660  0.41614  Biso   1.000  C
  C27      1.0000 0.52370  0.23950  0.41317  Biso   1.000  C
  C28      1.0000 0.63210  0.20921  0.49021  Biso   1.000  C
  C29      1.0000 0.51530  0.31420  0.32360  Biso   1.000  C
  H17      1.0000 0.49860  0.30770  0.27990  Biso   1.000  H
  H18      1.0000 0.47520  0.33520  0.33360  Biso   1.000  H
  C30      1.0000 0.60380  0.32320  0.48350  Biso   1.000  C
  H19      1.0000 0.63410  0.32330  0.52620  Biso   1.000  H
  H20      1.0000 0.55660  0.34350  0.48020  Biso   1.000  H
  C31      1.0000 0.61980  0.36580  0.30273  Biso   1.000  C
  C32      1.0000 0.60290  0.39500  0.39436  Biso   1.000  C
  C33      1.0000 0.66810  0.43590  0.38500  Biso   1.000  C
  C34      1.0000 0.71340  0.37630  0.47300  Biso   1.000  C
  C35      1.0000 0.71830  0.43880  0.29410  Biso   1.000  C
  H21      1.0000 0.69670  0.42770  0.25140  Biso   1.000  H
  H22      1.0000 0.71750  0.48450  0.29720  Biso   1.000  H
  C36      1.0000 0.80400  0.44830  0.45550  Biso   1.000  C
  H23      1.0000 0.82710  0.44160  0.49900  Biso   1.000  H
  H24      1.0000 0.79680  0.49340  0.44880  Biso   1.000  H
  C37      1.0000 0.85630  0.51910  0.36070  Biso   1.000  C
  H25      1.0000 0.85300  0.53070  0.31950  Biso   1.000  H
  H26      1.0000 0.81290  0.53650  0.36860  Biso   1.000  H
  C38      1.0000 0.92630  0.54760  0.40480  Biso   1.000  C
  H27      1.0000 0.93240  0.59010  0.39130  Biso   1.000  H
  H28      1.0000 0.91990  0.55120  0.44440  Biso   1.000  H
  C39      1.0000 0.99600  0.51100  0.41160  Biso   1.000  C
  H29      1.0000 0.01040  0.48820  0.45000  Biso   1.000  H
  H30      1.0000 0.03610  0.54000  0.41270  Biso   1.000  H
  C40      1.0000 0.98550  0.46420  0.35970  Biso   1.000  C
  H31      1.0000 0.97090  0.48670  0.32120  Biso   1.000  H
  H32      1.0000 0.03240  0.44270  0.36450  Biso   1.000  H
  C41      1.0000 0.09950  0.29640  0.34130  Biso   1.000  C
  H33      1.0000 0.13950  0.28260  0.37720  Biso   1.000  H
  H34      1.0000 0.09650  0.34220  0.34270  Biso   1.000  H
  C42      1.0000 0.11750  0.27670  0.28370  Biso   1.000  C
  H35      1.0000 0.08710  0.30160  0.24950  Biso   1.000  H
  H36      1.0000 0.16950  0.28630  0.28960  Biso   1.000  H
  C43      1.0000 0.10400  0.20770  0.26810  Biso   1.000  C
  H37      1.0000 0.06060  0.20370  0.23180  Biso   1.000  H
  H38      1.0000 0.14670  0.19070  0.25890  Biso   1.000  H
  C44      1.0000 0.09160  0.16950  0.31800  Biso   1.000  C
  H39      1.0000 0.13600  0.17120  0.35380  Biso   1.000  H
  H40      1.0000 0.08300  0.12570  0.30530  Biso   1.000  H
  C45      1.0000 0.98910  0.00040  0.31770  Biso   1.000  C
  H41      1.0000 0.03140  0.02640  0.31780  Biso   1.000  H
  H42      1.0000 0.96540  0.98470  0.27670  Biso   1.000  H
  C46      1.0000 0.01640  0.94470  0.36140  Biso   1.000  C
  H43      1.0000 0.04420  0.96080  0.40150  Biso   1.000  H
  H44      1.0000 0.05020  0.91910  0.34750  Biso   1.000  H
  C47      1.0000 0.95240  0.90300  0.36620  Biso   1.000  C
  H45      1.0000 0.95750  0.86100  0.35110  Biso   1.000  H
  H46      1.0000 0.95640  0.89900  0.40870  Biso   1.000  H
  C48      1.0000 0.87570  0.92900  0.33070  Biso   1.000  C
  H47      1.0000 0.83770  0.90470  0.34060  Biso   1.000  H
  H48      1.0000 0.86720  0.92440  0.28740  Biso   1.000  H
  C49      1.0000 0.68380  0.91430  0.37430  Biso   1.000  C
  H49      1.0000 0.69630  0.89610  0.41480  Biso   1.000  H
  H50      1.0000 0.71820  0.89740  0.35510  Biso   1.000  H
  C50      1.0000 0.60290  0.89620  0.33650  Biso   1.000  C
  H51      1.0000 0.59130  0.91340  0.29570  Biso   1.000  H
  H52      1.0000 0.59880  0.85050  0.33320  Biso   1.000  H
  C51      1.0000 0.54610  0.92120  0.36510  Biso   1.000  C
  H53      1.0000 0.50420  0.93970  0.33340  Biso   1.000  H
  H54      1.0000 0.52710  0.88600  0.38250  Biso   1.000  H
  C52      1.0000 0.57830  0.96990  0.41390  Biso   1.000  C
  H55      1.0000 0.53780  0.99160  0.42260  Biso   1.000  H
  H56      1.0000 0.60830  0.94880  0.45090  Biso   1.000  H
  C53      1.0000 0.46860  0.13620  0.43620  Biso   1.000  C
  H57      1.0000 0.48060  0.09210  0.44600  Biso   1.000  H
  H58      1.0000 0.42140  0.13810  0.40310  Biso   1.000  H
  C54      1.0000 0.46070  0.17010  0.49180  Biso   1.000  C
  H59      1.0000 0.42170  0.14980  0.50380  Biso   1.000  H
  H60      1.0000 0.50720  0.16630  0.52540  Biso   1.000  H
  C55      1.0000 0.44180  0.23970  0.47930  Biso   1.000  C
  H61      1.0000 0.47390  0.26460  0.51270  Biso   1.000  H
  H62      1.0000 0.39050  0.24670  0.47780  Biso   1.000  H
  C56      1.0000 0.45090  0.26320  0.41930  Biso   1.000  C
  H63      1.0000 0.40920  0.24830  0.38520  Biso   1.000  H
  H64      1.0000 0.45030  0.30910  0.41860  Biso   1.000  H
  C57      1.0000 0.53910  0.43570  0.39870  Biso   1.000  C
  H65      1.0000 0.55560  0.45990  0.43620  Biso   1.000  H
  H66      1.0000 0.49820  0.40870  0.40000  Biso   1.000  H
  C58      1.0000 0.51150  0.48050  0.34510  Biso   1.000  C
  H67      1.0000 0.47400  0.50830  0.35150  Biso   1.000  H
  H68      1.0000 0.48790  0.45620  0.30840  Biso   1.000  H
  C59      1.0000 0.57400  0.52010  0.33620  Biso   1.000  C
  H69      1.0000 0.56270  0.56450  0.33910  Biso   1.000  H
  H70      1.0000 0.57630  0.51260  0.29570  Biso   1.000  H
  C60      1.0000 0.65030  0.50540  0.38300  Biso   1.000  C
  H71      1.0000 0.68870  0.52890  0.37280  Biso   1.000  H
  H72      1.0000 0.65080  0.51910  0.42300  Biso   1.000  H
  N1       1.0000 0.79440  0.41769  0.31561  Biso   1.000  N
  N2       1.0000 0.89680  0.38229  0.30259  Biso   1.000  N
  N3       1.0000 0.85450  0.42591  0.42472  Biso   1.000  N
  N4       1.0000 0.94970  0.37333  0.41218  Biso   1.000  N
  N5       1.0000 0.96380  0.28786  0.28935  Biso   1.000  N
  N6       1.0000 0.95420  0.18394  0.28526  Biso   1.000  N
  N7       1.0000 0.01230  0.27662  0.39900  Biso   1.000  N
  N8       1.0000 0.02070  0.17265  0.39231  Biso   1.000  N
  N9       1.0000 0.89380  0.08508  0.28977  Biso   1.000  N
  N10      1.0000 0.80210  0.02810  0.30307  Biso   1.000  N
  N11      1.0000 0.96610  0.06913  0.39614  Biso   1.000  N
  N12      1.0000 0.87640  0.00951  0.40794  Biso   1.000  N
  N13      1.0000 0.68430  0.01583  0.32051  Biso   1.000  N
  N14      1.0000 0.58560  0.05177  0.34098  Biso   1.000  N
  N15      1.0000 0.75710  0.00736  0.42696  Biso   1.000  N
  N16      1.0000 0.66660  0.05986  0.44572  Biso   1.000  N
  N17      1.0000 0.52480  0.14906  0.35471  Biso   1.000  N
  N18      1.0000 0.52900  0.25326  0.35353  Biso   1.000  N
  N19      1.0000 0.60310  0.15614  0.46086  Biso   1.000  N
  N20      1.0000 0.58930  0.25903  0.46330  Biso   1.000  N
  N21      1.0000 0.58000  0.35503  0.34029  Biso   1.000  N
  N22      1.0000 0.67170  0.41205  0.32716  Biso   1.000  N
  N23      1.0000 0.64130  0.36009  0.44976  Biso   1.000  N
  N24      1.0000 0.73190  0.41767  0.43581  Biso   1.000  N
  O1       1.0000 0.78431  0.35696  0.23200  Biso   1.000  O
  O2       1.0000 0.86390  0.24221  0.21736  Biso   1.000  O
  O3       1.0000 0.77296  0.10819  0.23365  Biso   1.000  O
  O4       1.0000 0.59939  0.07697  0.24939  Biso   1.000  O
  O5       1.0000 0.51710  0.19871  0.26512  Biso   1.000  O
  O6       1.0000 0.61040  0.34012  0.25348  Biso   1.000  O
  O7       1.0000 0.92140  0.35642  0.49948  Biso   1.000  O
  O8       1.0000 0.01150  0.21512  0.48067  Biso   1.000  O
  O9       1.0000 0.95115  0.06573  0.49034  Biso   1.000  O
  O10      1.0000 0.78791  0.07421  0.50866  Biso   1.000  O
  O11      1.0000 0.68887  0.21303  0.53648  Biso   1.000  O
  O12      1.0000 0.75880  0.35616  0.52180  Biso   1.000  O
  Nd2      1.0000 0.75180  0.21578  0.64593  Biso   1.000  Nd
  C61      1.0000 0.82260  0.11670  0.78072  Biso   1.000  C
  C62      1.0000 0.85510  0.05300  0.86570  Biso   1.000  C
  C63      1.0000 0.92590  0.08420  0.85910  Biso   1.000  C
  C64      1.0000 0.90930  0.11770  0.95030  Biso   1.000  C
  C65      1.0000 0.94280  0.14820  0.77160  Biso   1.000  C
  H73      1.0000 0.91590  0.14750  0.72820  Biso   1.000  H
  H74      1.0000 0.98800  0.12340  0.77870  Biso   1.000  H
  C66      1.0000 0.01760  0.16310  0.93100  Biso   1.000  C
  H75      1.0000 0.03140  0.17140  0.97440  Biso   1.000  H
  H76      1.0000 0.05730  0.13820  0.92440  Biso   1.000  H
  C67      1.0000 0.92180  0.26170  0.76080  Biso   1.000  C
  C68      1.0000 0.02670  0.23200  0.84160  Biso   1.000  C
  C69      1.0000 0.02460  0.30570  0.83430  Biso   1.000  C
  C70      1.0000 0.01410  0.27930  0.92900  Biso   1.000  C
  C71      1.0000 0.92830  0.37630  0.75732  Biso   1.000  C
  H77      1.0000 0.89300  0.36880  0.71690  Biso   1.000  H
  H78      1.0000 0.97060  0.39900  0.75250  Biso   1.000  H
  C72      1.0000 0.03210  0.39210  0.91450  Biso   1.000  C
  H79      1.0000 0.06970  0.41160  0.90020  Biso   1.000  H
  H80      1.0000 0.05160  0.39120  0.95870  Biso   1.000  H
  C73      1.0000 0.81880  0.42280  0.77230  Biso   1.000  C
  C74      1.0000 0.93410  0.46020  0.83647  Biso   1.000  C
  C75      1.0000 0.86850  0.50120  0.84540  Biso   1.000  C
  C76      1.0000 0.93330  0.44970  0.93750  Biso   1.000  C
  C77      1.0000 0.72830  0.49920  0.78250  Biso   1.000  C
  H81      1.0000 0.70230  0.48440  0.74150  Biso   1.000  H
  H82      1.0000 0.73290  0.54480  0.78080  Biso   1.000  H
  C78      1.0000 0.83170  0.51960  0.94090  Biso   1.000  C
  H83      1.0000 0.85770  0.51530  0.98420  Biso   1.000  H
  H84      1.0000 0.82700  0.56440  0.93150  Biso   1.000  H
  C79      1.0000 0.62140  0.44780  0.79940  Biso   1.000  C
  C80      1.0000 0.69160  0.51390  0.87915  Biso   1.000  C
  C81      1.0000 0.62590  0.48230  0.89590  Biso   1.000  C
  C82      1.0000 0.74220  0.45030  0.96487  Biso   1.000  C
  C83      1.0000 0.51550  0.41380  0.83050  Biso   1.000  C
  H85      1.0000 0.48960  0.41160  0.78690  Biso   1.000  H
  H86      1.0000 0.48420  0.43740  0.84850  Biso   1.000  H
  C84      1.0000 0.63220  0.40600  0.98355  Biso   1.000  C
  H87      1.0000 0.66880  0.40110  0.02380  Biso   1.000  H
  H88      1.0000 0.59150  0.43140  0.98790  Biso   1.000  H
  C85      1.0000 0.52350  0.29980  0.81930  Biso   1.000  C
  C86      1.0000 0.52970  0.33340  0.91614  Biso   1.000  C
  C87      1.0000 0.52370  0.26050  0.91317  Biso   1.000  C
  C88      1.0000 0.63210  0.29079  0.99021  Biso   1.000  C
  C89      1.0000 0.51530  0.18580  0.82360  Biso   1.000  C
  H89      1.0000 0.49860  0.19230  0.77990  Biso   1.000  H
  H90      1.0000 0.47520  0.16480  0.83360  Biso   1.000  H
  C90      1.0000 0.60380  0.17680  0.98350  Biso   1.000  C
  H91      1.0000 0.63410  0.17670  0.02620  Biso   1.000  H
  H92      1.0000 0.55660  0.15650  0.98020  Biso   1.000  H
  C91      1.0000 0.61980  0.13420  0.80273  Biso   1.000  C
  C92      1.0000 0.60290  0.10500  0.89436  Biso   1.000  C
  C93      1.0000 0.66810  0.06410  0.88500  Biso   1.000  C
  C94      1.0000 0.71340  0.12370  0.97300  Biso   1.000  C
  C95      1.0000 0.71830  0.06120  0.79410  Biso   1.000  C
  H93      1.0000 0.69670  0.07230  0.75140  Biso   1.000  H
  H94      1.0000 0.71750  0.01550  0.79720  Biso   1.000  H
  C96      1.0000 0.80400  0.05170  0.95550  Biso   1.000  C
  H95      1.0000 0.82710  0.05840  0.99900  Biso   1.000  H
  H96      1.0000 0.79680  0.00660  0.94880  Biso   1.000  H
  C97      1.0000 0.85630  0.98090  0.86070  Biso   1.000  C
  H97      1.0000 0.85300  0.96930  0.81950  Biso   1.000  H
  H98      1.0000 0.81290  0.96350  0.86860  Biso   1.000  H
  C98      1.0000 0.92630  0.95240  0.90480  Biso   1.000  C
  H99      1.0000 0.93240  0.90990  0.89130  Biso   1.000  H
  H100     1.0000 0.91990  0.94880  0.94440  Biso   1.000  H
  C99      1.0000 0.99600  0.98900  0.91160  Biso   1.000  C
  H101     1.0000 0.01040  0.01180  0.95000  Biso   1.000  H
  H102     1.0000 0.03610  0.96000  0.91270  Biso   1.000  H
  C100     1.0000 0.98550  0.03580  0.85970  Biso   1.000  C
  H103     1.0000 0.97090  0.01330  0.82120  Biso   1.000  H
  H104     1.0000 0.03240  0.05730  0.86450  Biso   1.000  H
  C101     1.0000 0.09950  0.20360  0.84130  Biso   1.000  C
  H105     1.0000 0.13950  0.21740  0.87720  Biso   1.000  H
  H106     1.0000 0.09650  0.15780  0.84270  Biso   1.000  H
  C102     1.0000 0.11750  0.22330  0.78370  Biso   1.000  C
  H107     1.0000 0.08710  0.19840  0.74950  Biso   1.000  H
  H108     1.0000 0.16950  0.21370  0.78960  Biso   1.000  H
  C103     1.0000 0.10400  0.29230  0.76810  Biso   1.000  C
  H109     1.0000 0.06060  0.29630  0.73180  Biso   1.000  H
  H110     1.0000 0.14670  0.30930  0.75890  Biso   1.000  H
  C104     1.0000 0.09160  0.33050  0.81800  Biso   1.000  C
  H111     1.0000 0.13600  0.32880  0.85380  Biso   1.000  H
  H112     1.0000 0.08300  0.37430  0.80530  Biso   1.000  H
  C105     1.0000 0.98910  0.49960  0.81770  Biso   1.000  C
  H113     1.0000 0.03140  0.47360  0.81780  Biso   1.000  H
  H114     1.0000 0.96540  0.51530  0.77670  Biso   1.000  H
  C106     1.0000 0.01640  0.55530  0.86140  Biso   1.000  C
  H115     1.0000 0.04420  0.53920  0.90150  Biso   1.000  H
  H116     1.0000 0.05020  0.58090  0.84750  Biso   1.000  H
  C107     1.0000 0.95240  0.59700  0.86620  Biso   1.000  C
  H117     1.0000 0.95750  0.63900  0.85110  Biso   1.000  H
  H118     1.0000 0.95640  0.60100  0.90870  Biso   1.000  H
  C108     1.0000 0.87570  0.57100  0.83070  Biso   1.000  C
  H119     1.0000 0.83770  0.59530  0.84060  Biso   1.000  H
  H120     1.0000 0.86720  0.57560  0.78740  Biso   1.000  H
  C109     1.0000 0.68380  0.58570  0.87430  Biso   1.000  C
  H121     1.0000 0.69630  0.60390  0.91480  Biso   1.000  H
  H122     1.0000 0.71820  0.60260  0.85510  Biso   1.000  H
  C110     1.0000 0.60290  0.60380  0.83650  Biso   1.000  C
  H123     1.0000 0.59130  0.58660  0.79570  Biso   1.000  H
  H124     1.0000 0.59880  0.64950  0.83320  Biso   1.000  H
  C111     1.0000 0.54610  0.57880  0.86510  Biso   1.000  C
  H125     1.0000 0.50420  0.56030  0.83340  Biso   1.000  H
  H126     1.0000 0.52710  0.61400  0.88250  Biso   1.000  H
  C112     1.0000 0.57830  0.53010  0.91390  Biso   1.000  C
  H127     1.0000 0.53780  0.50840  0.92260  Biso   1.000  H
  H128     1.0000 0.60830  0.55120  0.95090  Biso   1.000  H
  C113     1.0000 0.46860  0.36380  0.93620  Biso   1.000  C
  H129     1.0000 0.48060  0.40790  0.94600  Biso   1.000  H
  H130     1.0000 0.42140  0.36190  0.90310  Biso   1.000  H
  C114     1.0000 0.46070  0.32990  0.99180  Biso   1.000  C
  H131     1.0000 0.42170  0.35020  0.00380  Biso   1.000  H
  H132     1.0000 0.50720  0.33370  0.02540  Biso   1.000  H
  C115     1.0000 0.44180  0.26030  0.97930  Biso   1.000  C
  H133     1.0000 0.47390  0.23540  0.01270  Biso   1.000  H
  H134     1.0000 0.39050  0.25330  0.97780  Biso   1.000  H
  C116     1.0000 0.45090  0.23680  0.91930  Biso   1.000  C
  H135     1.0000 0.40920  0.25170  0.88520  Biso   1.000  H
  H136     1.0000 0.45030  0.19090  0.91860  Biso   1.000  H
  C117     1.0000 0.53910  0.06430  0.89870  Biso   1.000  C
  H137     1.0000 0.55560  0.04010  0.93620  Biso   1.000  H
  H138     1.0000 0.49820  0.09130  0.90000  Biso   1.000  H
  C118     1.0000 0.51150  0.01950  0.84510  Biso   1.000  C
  H139     1.0000 0.47400  0.99170  0.85150  Biso   1.000  H
  H140     1.0000 0.48790  0.04380  0.80840  Biso   1.000  H
  C119     1.0000 0.57400  0.97990  0.83620  Biso   1.000  C
  H141     1.0000 0.56270  0.93550  0.83910  Biso   1.000  H
  H142     1.0000 0.57630  0.98740  0.79570  Biso   1.000  H
  C120     1.0000 0.65030  0.99460  0.88300  Biso   1.000  C
  H143     1.0000 0.68870  0.97110  0.87280  Biso   1.000  H
  H144     1.0000 0.65080  0.98090  0.92300  Biso   1.000  H
  N25      1.0000 0.79440  0.08231  0.81561  Biso   1.000  N
  N26      1.0000 0.89680  0.11771  0.80259  Biso   1.000  N
  N27      1.0000 0.85450  0.07409  0.92472  Biso   1.000  N
  N28      1.0000 0.94970  0.12667  0.91218  Biso   1.000  N
  N29      1.0000 0.96380  0.21214  0.78935  Biso   1.000  N
  N30      1.0000 0.95420  0.31606  0.78526  Biso   1.000  N
  N31      1.0000 0.01230  0.22338  0.89900  Biso   1.000  N
  N32      1.0000 0.02070  0.32735  0.89231  Biso   1.000  N
  N33      1.0000 0.89380  0.41492  0.78977  Biso   1.000  N
  N34      1.0000 0.80210  0.47190  0.80307  Biso   1.000  N
  N35      1.0000 0.96610  0.43087  0.89614  Biso   1.000  N
  N36      1.0000 0.87640  0.49049  0.90794  Biso   1.000  N
  N37      1.0000 0.68430  0.48417  0.82051  Biso   1.000  N
  N38      1.0000 0.58560  0.44823  0.84098  Biso   1.000  N
  N39      1.0000 0.75710  0.49264  0.92696  Biso   1.000  N
  N40      1.0000 0.66660  0.44014  0.94572  Biso   1.000  N
  N41      1.0000 0.52480  0.35094  0.85471  Biso   1.000  N
  N42      1.0000 0.52900  0.24674  0.85353  Biso   1.000  N
  N43      1.0000 0.60310  0.34386  0.96086  Biso   1.000  N
  N44      1.0000 0.58930  0.24097  0.96330  Biso   1.000  N
  N45      1.0000 0.58000  0.14497  0.84029  Biso   1.000  N
  N46      1.0000 0.67170  0.08795  0.82716  Biso   1.000  N
  N47      1.0000 0.64130  0.13991  0.94976  Biso   1.000  N
  N48      1.0000 0.73190  0.08233  0.93581  Biso   1.000  N
  O13      1.0000 0.78431  0.14304  0.73200  Biso   1.000  O
  O14      1.0000 0.86390  0.25779  0.71736  Biso   1.000  O
  O15      1.0000 0.77296  0.39181  0.73365  Biso   1.000  O
  O16      1.0000 0.59939  0.42303  0.74939  Biso   1.000  O
  O17      1.0000 0.51710  0.30129  0.76512  Biso   1.000  O
  O18      1.0000 0.61040  0.15988  0.75348  Biso   1.000  O
  O19      1.0000 0.92140  0.14358  0.99948  Biso   1.000  O
  O20      1.0000 0.01150  0.28488  0.98067  Biso   1.000  O
  O21      1.0000 0.95115  0.43427  0.99034  Biso   1.000  O
  O22      1.0000 0.78791  0.42579  0.00866  Biso   1.000  O
  O23      1.0000 0.68887  0.28697  0.03648  Biso   1.000  O
  O24      1.0000 0.75880  0.14384  0.02180  Biso   1.000  O
  Nd3      1.0000 0.24820  0.78422  0.35407  Biso   1.000  Nd
  C121     1.0000 0.17740  0.88330  0.21928  Biso   1.000  C
  C122     1.0000 0.14490  0.94700  0.13430  Biso   1.000  C
  C123     1.0000 0.07410  0.91580  0.14090  Biso   1.000  C
  C124     1.0000 0.09070  0.88230  0.04970  Biso   1.000  C
  C125     1.0000 0.05720  0.85180  0.22840  Biso   1.000  C
  H145     1.0000 0.08410  0.85250  0.27180  Biso   1.000  H
  H146     1.0000 0.01200  0.87660  0.22130  Biso   1.000  H
  C126     1.0000 0.98240  0.83690  0.06900  Biso   1.000  C
  H147     1.0000 0.96860  0.82860  0.02560  Biso   1.000  H
  H148     1.0000 0.94270  0.86180  0.07560  Biso   1.000  H
  C127     1.0000 0.07820  0.73830  0.23920  Biso   1.000  C
  C128     1.0000 0.97330  0.76800  0.15840  Biso   1.000  C
  C129     1.0000 0.97540  0.69430  0.16570  Biso   1.000  C
  C130     1.0000 0.98590  0.72070  0.07100  Biso   1.000  C
  C131     1.0000 0.07170  0.62370  0.24268  Biso   1.000  C
  H149     1.0000 0.10700  0.63120  0.28310  Biso   1.000  H
  H150     1.0000 0.02940  0.60100  0.24750  Biso   1.000  H
  C132     1.0000 0.96790  0.60790  0.08550  Biso   1.000  C
  H151     1.0000 0.93030  0.58840  0.09980  Biso   1.000  H
  H152     1.0000 0.94840  0.60880  0.04130  Biso   1.000  H
  C133     1.0000 0.18120  0.57720  0.22770  Biso   1.000  C
  C134     1.0000 0.06590  0.53980  0.16353  Biso   1.000  C
  C135     1.0000 0.13150  0.49880  0.15460  Biso   1.000  C
  C136     1.0000 0.06670  0.55030  0.06250  Biso   1.000  C
  C137     1.0000 0.27170  0.50080  0.21750  Biso   1.000  C
  H153     1.0000 0.29770  0.51560  0.25850  Biso   1.000  H
  H154     1.0000 0.26710  0.45520  0.21920  Biso   1.000  H
  C138     1.0000 0.16830  0.48040  0.05910  Biso   1.000  C
  H155     1.0000 0.14230  0.48470  0.01580  Biso   1.000  H
  H156     1.0000 0.17300  0.43560  0.06850  Biso   1.000  H
  C139     1.0000 0.37860  0.55220  0.20060  Biso   1.000  C
  C140     1.0000 0.30840  0.48610  0.12085  Biso   1.000  C
  C141     1.0000 0.37410  0.51770  0.10410  Biso   1.000  C
  C142     1.0000 0.25780  0.54970  0.03513  Biso   1.000  C
  C143     1.0000 0.48450  0.58620  0.16950  Biso   1.000  C
  H157     1.0000 0.51040  0.58840  0.21310  Biso   1.000  H
  H158     1.0000 0.51580  0.56260  0.15150  Biso   1.000  H
  C144     1.0000 0.36780  0.59400  0.01645  Biso   1.000  C
  H159     1.0000 0.33120  0.59890  0.97620  Biso   1.000  H
  H160     1.0000 0.40850  0.56860  0.01210  Biso   1.000  H
  C145     1.0000 0.47650  0.70020  0.18070  Biso   1.000  C
  C146     1.0000 0.47030  0.66660  0.08386  Biso   1.000  C
  C147     1.0000 0.47630  0.73950  0.08683  Biso   1.000  C
  C148     1.0000 0.36790  0.70921  0.00979  Biso   1.000  C
  C149     1.0000 0.48470  0.81420  0.17640  Biso   1.000  C
  H161     1.0000 0.50140  0.80770  0.22010  Biso   1.000  H
  H162     1.0000 0.52480  0.83520  0.16640  Biso   1.000  H
  C150     1.0000 0.39620  0.82320  0.01650  Biso   1.000  C
  H163     1.0000 0.36590  0.82330  0.97380  Biso   1.000  H
  H164     1.0000 0.44340  0.84350  0.01980  Biso   1.000  H
  C151     1.0000 0.38020  0.86580  0.19727  Biso   1.000  C
  C152     1.0000 0.39710  0.89500  0.10564  Biso   1.000  C
  C153     1.0000 0.33190  0.93590  0.11500  Biso   1.000  C
  C154     1.0000 0.28660  0.87630  0.02700  Biso   1.000  C
  C155     1.0000 0.28170  0.93880  0.20590  Biso   1.000  C
  H165     1.0000 0.30330  0.92770  0.24860  Biso   1.000  H
  H166     1.0000 0.28250  0.98450  0.20280  Biso   1.000  H
  C156     1.0000 0.19600  0.94830  0.04450  Biso   1.000  C
  H167     1.0000 0.17290  0.94160  0.00100  Biso   1.000  H
  H168     1.0000 0.20320  0.99340  0.05120  Biso   1.000  H
  C157     1.0000 0.14370  0.01910  0.13930  Biso   1.000  C
  H169     1.0000 0.14700  0.03070  0.18050  Biso   1.000  H
  H170     1.0000 0.18710  0.03650  0.13140  Biso   1.000  H
  C158     1.0000 0.07370  0.04760  0.09520  Biso   1.000  C
  H171     1.0000 0.06760  0.09010  0.10870  Biso   1.000  H
  H172     1.0000 0.08010  0.05120  0.05560  Biso   1.000  H
  C159     1.0000 0.00400  0.01100  0.08840  Biso   1.000  C
  H173     1.0000 0.98960  0.98820  0.05000  Biso   1.000  H
  H174     1.0000 0.96390  0.04000  0.08730  Biso   1.000  H
  C160     1.0000 0.01450  0.96420  0.14030  Biso   1.000  C
  H175     1.0000 0.02910  0.98670  0.17880  Biso   1.000  H
  H176     1.0000 0.96760  0.94270  0.13550  Biso   1.000  H
  C161     1.0000 0.90050  0.79640  0.15870  Biso   1.000  C
  H177     1.0000 0.86050  0.78260  0.12280  Biso   1.000  H
  H178     1.0000 0.90350  0.84220  0.15730  Biso   1.000  H
  C162     1.0000 0.88250  0.77670  0.21630  Biso   1.000  C
  H179     1.0000 0.91290  0.80160  0.25050  Biso   1.000  H
  H180     1.0000 0.83050  0.78630  0.21040  Biso   1.000  H
  C163     1.0000 0.89600  0.70770  0.23190  Biso   1.000  C
  H181     1.0000 0.93940  0.70370  0.26820  Biso   1.000  H
  H182     1.0000 0.85330  0.69070  0.24110  Biso   1.000  H
  C164     1.0000 0.90840  0.66950  0.18200  Biso   1.000  C
  H183     1.0000 0.86400  0.67120  0.14620  Biso   1.000  H
  H184     1.0000 0.91700  0.62570  0.19470  Biso   1.000  H
  C165     1.0000 0.01090  0.50040  0.18230  Biso   1.000  C
  H185     1.0000 0.96860  0.52640  0.18220  Biso   1.000  H
  H186     1.0000 0.03460  0.48470  0.22330  Biso   1.000  H
  C166     1.0000 0.98360  0.44470  0.13860  Biso   1.000  C
  H187     1.0000 0.95580  0.46080  0.09850  Biso   1.000  H
  H188     1.0000 0.94980  0.41910  0.15250  Biso   1.000  H
  C167     1.0000 0.04760  0.40300  0.13380  Biso   1.000  C
  H189     1.0000 0.04250  0.36100  0.14890  Biso   1.000  H
  H190     1.0000 0.04360  0.39900  0.09130  Biso   1.000  H
  C168     1.0000 0.12430  0.42900  0.16930  Biso   1.000  C
  H191     1.0000 0.16230  0.40470  0.15940  Biso   1.000  H
  H192     1.0000 0.13280  0.42440  0.21260  Biso   1.000  H
  C169     1.0000 0.31620  0.41430  0.12570  Biso   1.000  C
  H193     1.0000 0.30370  0.39610  0.08520  Biso   1.000  H
  H194     1.0000 0.28180  0.39740  0.14490  Biso   1.000  H
  C170     1.0000 0.39710  0.39620  0.16350  Biso   1.000  C
  H195     1.0000 0.40870  0.41340  0.20430  Biso   1.000  H
  H196     1.0000 0.40120  0.35050  0.16680  Biso   1.000  H
  C171     1.0000 0.45390  0.42120  0.13490  Biso   1.000  C
  H197     1.0000 0.49580  0.43970  0.16660  Biso   1.000  H
  H198     1.0000 0.47290  0.38600  0.11750  Biso   1.000  H
  C172     1.0000 0.42170  0.46990  0.08610  Biso   1.000  C
  H199     1.0000 0.46220  0.49160  0.07740  Biso   1.000  H
  H200     1.0000 0.39170  0.44880  0.04910  Biso   1.000  H
  C173     1.0000 0.53140  0.63620  0.06380  Biso   1.000  C
  H201     1.0000 0.51940  0.59210  0.05400  Biso   1.000  H
  H202     1.0000 0.57860  0.63810  0.09690  Biso   1.000  H
  C174     1.0000 0.53930  0.67010  0.00820  Biso   1.000  C
  H203     1.0000 0.57830  0.64980  0.99620  Biso   1.000  H
  H204     1.0000 0.49280  0.66630  0.97460  Biso   1.000  H
  C175     1.0000 0.55820  0.73970  0.02070  Biso   1.000  C
  H205     1.0000 0.52610  0.76460  0.98730  Biso   1.000  H
  H206     1.0000 0.60950  0.74670  0.02220  Biso   1.000  H
  C176     1.0000 0.54910  0.76320  0.08070  Biso   1.000  C
  H207     1.0000 0.59080  0.74830  0.11480  Biso   1.000  H
  H208     1.0000 0.54970  0.80910  0.08140  Biso   1.000  H
  C177     1.0000 0.46090  0.93570  0.10130  Biso   1.000  C
  H209     1.0000 0.44440  0.95990  0.06380  Biso   1.000  H
  H210     1.0000 0.50180  0.90870  0.10000  Biso   1.000  H
  C178     1.0000 0.48850  0.98050  0.15490  Biso   1.000  C
  H211     1.0000 0.52600  0.00830  0.14850  Biso   1.000  H
  H212     1.0000 0.51210  0.95620  0.19160  Biso   1.000  H
  C179     1.0000 0.42600  0.02010  0.16380  Biso   1.000  C
  H213     1.0000 0.43730  0.06450  0.16090  Biso   1.000  H
  H214     1.0000 0.42370  0.01260  0.20430  Biso   1.000  H
  C180     1.0000 0.34970  0.00540  0.11700  Biso   1.000  C
  H215     1.0000 0.31130  0.02890  0.12720  Biso   1.000  H
  H216     1.0000 0.34920  0.01910  0.07700  Biso   1.000  H
  N49      1.0000 0.20560  0.91769  0.18439  Biso   1.000  N
  N50      1.0000 0.10320  0.88229  0.19741  Biso   1.000  N
  N51      1.0000 0.14550  0.92591  0.07528  Biso   1.000  N
  N52      1.0000 0.05030  0.87333  0.08782  Biso   1.000  N
  N53      1.0000 0.03620  0.78786  0.21065  Biso   1.000  N
  N54      1.0000 0.04580  0.68394  0.21474  Biso   1.000  N
  N55      1.0000 0.98770  0.77662  0.10100  Biso   1.000  N
  N56      1.0000 0.97930  0.67265  0.10769  Biso   1.000  N
  N57      1.0000 0.10620  0.58508  0.21023  Biso   1.000  N
  N58      1.0000 0.19790  0.52810  0.19693  Biso   1.000  N
  N59      1.0000 0.03390  0.56913  0.10386  Biso   1.000  N
  N60      1.0000 0.12360  0.50951  0.09206  Biso   1.000  N
  N61      1.0000 0.31570  0.51583  0.17949  Biso   1.000  N
  N62      1.0000 0.41440  0.55177  0.15902  Biso   1.000  N
  N63      1.0000 0.24290  0.50736  0.07304  Biso   1.000  N
  N64      1.0000 0.33340  0.55986  0.05428  Biso   1.000  N
  N65      1.0000 0.47520  0.64906  0.14529  Biso   1.000  N
  N66      1.0000 0.47100  0.75326  0.14647  Biso   1.000  N
  N67      1.0000 0.39690  0.65614  0.03914  Biso   1.000  N
  N68      1.0000 0.41070  0.75903  0.03670  Biso   1.000  N
  N69      1.0000 0.42000  0.85503  0.15971  Biso   1.000  N
  N70      1.0000 0.32830  0.91205  0.17284  Biso   1.000  N
  N71      1.0000 0.35870  0.86009  0.05024  Biso   1.000  N
  N72      1.0000 0.26810  0.91767  0.06419  Biso   1.000  N
  O25      1.0000 0.21569  0.85696  0.26800  Biso   1.000  O
  O26      1.0000 0.13610  0.74221  0.28264  Biso   1.000  O
  O27      1.0000 0.22704  0.60819  0.26635  Biso   1.000  O
  O28      1.0000 0.40061  0.57697  0.25061  Biso   1.000  O
  O29      1.0000 0.48290  0.69871  0.23488  Biso   1.000  O
  O30      1.0000 0.38960  0.84012  0.24652  Biso   1.000  O
  O31      1.0000 0.07860  0.85642  0.00052  Biso   1.000  O
  O32      1.0000 0.98850  0.71512  0.01933  Biso   1.000  O
  O33      1.0000 0.04885  0.56573  0.00966  Biso   1.000  O
  O34      1.0000 0.21209  0.57421  0.99134  Biso   1.000  O
  O35      1.0000 0.31113  0.71303  0.96352  Biso   1.000  O
  O36      1.0000 0.24120  0.85616  0.97820  Biso   1.000  O
  Nd4      1.0000 0.24820  0.71578  0.85407  Biso   1.000  Nd
  C181     1.0000 0.17740  0.61670  0.71928  Biso   1.000  C
  C182     1.0000 0.14490  0.55300  0.63430  Biso   1.000  C
  C183     1.0000 0.07410  0.58420  0.64090  Biso   1.000  C
  C184     1.0000 0.09070  0.61770  0.54970  Biso   1.000  C
  C185     1.0000 0.05720  0.64820  0.72840  Biso   1.000  C
  H217     1.0000 0.08410  0.64750  0.77180  Biso   1.000  H
  H218     1.0000 0.01200  0.62340  0.72130  Biso   1.000  H
  C186     1.0000 0.98240  0.66310  0.56900  Biso   1.000  C
  H219     1.0000 0.96860  0.67140  0.52560  Biso   1.000  H
  H220     1.0000 0.94270  0.63820  0.57560  Biso   1.000  H
  C187     1.0000 0.07820  0.76170  0.73920  Biso   1.000  C
  C188     1.0000 0.97330  0.73200  0.65840  Biso   1.000  C
  C189     1.0000 0.97540  0.80570  0.66570  Biso   1.000  C
  C190     1.0000 0.98590  0.77930  0.57100  Biso   1.000  C
  C191     1.0000 0.07170  0.87630  0.74268  Biso   1.000  C
  H221     1.0000 0.10700  0.86880  0.78310  Biso   1.000  H
  H222     1.0000 0.02940  0.89900  0.74750  Biso   1.000  H
  C192     1.0000 0.96790  0.89210  0.58550  Biso   1.000  C
  H223     1.0000 0.93030  0.91160  0.59980  Biso   1.000  H
  H224     1.0000 0.94840  0.89120  0.54130  Biso   1.000  H
  C193     1.0000 0.18120  0.92280  0.72770  Biso   1.000  C
  C194     1.0000 0.06590  0.96020  0.66353  Biso   1.000  C
  C195     1.0000 0.13150  0.00120  0.65460  Biso   1.000  C
  C196     1.0000 0.06670  0.94970  0.56250  Biso   1.000  C
  C197     1.0000 0.27170  0.99920  0.71750  Biso   1.000  C
  H225     1.0000 0.29770  0.98440  0.75850  Biso   1.000  H
  H226     1.0000 0.26710  0.04480  0.71920  Biso   1.000  H
  C198     1.0000 0.16830  0.01960  0.55910  Biso   1.000  C
  H227     1.0000 0.14230  0.01530  0.51580  Biso   1.000  H
  H228     1.0000 0.17300  0.06440  0.56850  Biso   1.000  H
  C199     1.0000 0.37860  0.94780  0.70060  Biso   1.000  C
  C200     1.0000 0.30840  0.01390  0.62085  Biso   1.000  C
  C201     1.0000 0.37410  0.98230  0.60410  Biso   1.000  C
  C202     1.0000 0.25780  0.95030  0.53513  Biso   1.000  C
  C203     1.0000 0.48450  0.91380  0.66950  Biso   1.000  C
  H229     1.0000 0.51040  0.91160  0.71310  Biso   1.000  H
  H230     1.0000 0.51580  0.93740  0.65150  Biso   1.000  H
  C204     1.0000 0.36780  0.90600  0.51645  Biso   1.000  C
  H231     1.0000 0.33120  0.90110  0.47620  Biso   1.000  H
  H232     1.0000 0.40850  0.93140  0.51210  Biso   1.000  H
  C205     1.0000 0.47650  0.79980  0.68070  Biso   1.000  C
  C206     1.0000 0.47030  0.83340  0.58386  Biso   1.000  C
  C207     1.0000 0.47630  0.76050  0.58683  Biso   1.000  C
  C208     1.0000 0.36790  0.79079  0.50979  Biso   1.000  C
  C209     1.0000 0.48470  0.68580  0.67640  Biso   1.000  C
  H233     1.0000 0.50140  0.69230  0.72010  Biso   1.000  H
  H234     1.0000 0.52480  0.66480  0.66640  Biso   1.000  H
  C210     1.0000 0.39620  0.67680  0.51650  Biso   1.000  C
  H235     1.0000 0.36590  0.67670  0.47380  Biso   1.000  H
  H236     1.0000 0.44340  0.65650  0.51980  Biso   1.000  H
  C211     1.0000 0.38020  0.63420  0.69727  Biso   1.000  C
  C212     1.0000 0.39710  0.60500  0.60564  Biso   1.000  C
  C213     1.0000 0.33190  0.56410  0.61500  Biso   1.000  C
  C214     1.0000 0.28660  0.62370  0.52700  Biso   1.000  C
  C215     1.0000 0.28170  0.56120  0.70590  Biso   1.000  C
  H237     1.0000 0.30330  0.57230  0.74860  Biso   1.000  H
  H238     1.0000 0.28250  0.51550  0.70280  Biso   1.000  H
  C216     1.0000 0.19600  0.55170  0.54450  Biso   1.000  C
  H239     1.0000 0.17290  0.55840  0.50100  Biso   1.000  H
  H240     1.0000 0.20320  0.50660  0.55120  Biso   1.000  H
  C217     1.0000 0.14370  0.48090  0.63930  Biso   1.000  C
  H241     1.0000 0.14700  0.46930  0.68050  Biso   1.000  H
  H242     1.0000 0.18710  0.46350  0.63140  Biso   1.000  H
  C218     1.0000 0.07370  0.45240  0.59520  Biso   1.000  C
  H243     1.0000 0.06760  0.40990  0.60870  Biso   1.000  H
  H244     1.0000 0.08010  0.44880  0.55560  Biso   1.000  H
  C219     1.0000 0.00400  0.48900  0.58840  Biso   1.000  C
  H245     1.0000 0.98960  0.51180  0.55000  Biso   1.000  H
  H246     1.0000 0.96390  0.46000  0.58730  Biso   1.000  H
  C220     1.0000 0.01450  0.53580  0.64030  Biso   1.000  C
  H247     1.0000 0.02910  0.51330  0.67880  Biso   1.000  H
  H248     1.0000 0.96760  0.55730  0.63550  Biso   1.000  H
  C221     1.0000 0.90050  0.70360  0.65870  Biso   1.000  C
  H249     1.0000 0.86050  0.71740  0.62280  Biso   1.000  H
  H250     1.0000 0.90350  0.65780  0.65730  Biso   1.000  H
  C222     1.0000 0.88250  0.72330  0.71630  Biso   1.000  C
  H251     1.0000 0.91290  0.69840  0.75050  Biso   1.000  H
  H252     1.0000 0.83050  0.71370  0.71040  Biso   1.000  H
  C223     1.0000 0.89600  0.79230  0.73190  Biso   1.000  C
  H253     1.0000 0.93940  0.79630  0.76820  Biso   1.000  H
  H254     1.0000 0.85330  0.80930  0.74110  Biso   1.000  H
  C224     1.0000 0.90840  0.83050  0.68200  Biso   1.000  C
  H255     1.0000 0.86400  0.82880  0.64620  Biso   1.000  H
  H256     1.0000 0.91700  0.87430  0.69470  Biso   1.000  H
  C225     1.0000 0.01090  0.99960  0.68230  Biso   1.000  C
  H257     1.0000 0.96860  0.97360  0.68220  Biso   1.000  H
  H258     1.0000 0.03460  0.01530  0.72330  Biso   1.000  H
  C226     1.0000 0.98360  0.05530  0.63860  Biso   1.000  C
  H259     1.0000 0.95580  0.03920  0.59850  Biso   1.000  H
  H260     1.0000 0.94980  0.08090  0.65250  Biso   1.000  H
  C227     1.0000 0.04760  0.09700  0.63380  Biso   1.000  C
  H261     1.0000 0.04250  0.13900  0.64890  Biso   1.000  H
  H262     1.0000 0.04360  0.10100  0.59130  Biso   1.000  H
  C228     1.0000 0.12430  0.07100  0.66930  Biso   1.000  C
  H263     1.0000 0.16230  0.09530  0.65940  Biso   1.000  H
  H264     1.0000 0.13280  0.07560  0.71260  Biso   1.000  H
  C229     1.0000 0.31620  0.08570  0.62570  Biso   1.000  C
  H265     1.0000 0.30370  0.10390  0.58520  Biso   1.000  H
  H266     1.0000 0.28180  0.10260  0.64490  Biso   1.000  H
  C230     1.0000 0.39710  0.10380  0.66350  Biso   1.000  C
  H267     1.0000 0.40870  0.08660  0.70430  Biso   1.000  H
  H268     1.0000 0.40120  0.14950  0.66680  Biso   1.000  H
  C231     1.0000 0.45390  0.07880  0.63490  Biso   1.000  C
  H269     1.0000 0.49580  0.06030  0.66660  Biso   1.000  H
  H270     1.0000 0.47290  0.11400  0.61750  Biso   1.000  H
  C232     1.0000 0.42170  0.03010  0.58610  Biso   1.000  C
  H271     1.0000 0.46220  0.00840  0.57740  Biso   1.000  H
  H272     1.0000 0.39170  0.05120  0.54910  Biso   1.000  H
  C233     1.0000 0.53140  0.86380  0.56380  Biso   1.000  C
  H273     1.0000 0.51940  0.90790  0.55400  Biso   1.000  H
  H274     1.0000 0.57860  0.86190  0.59690  Biso   1.000  H
  C234     1.0000 0.53930  0.82990  0.50820  Biso   1.000  C
  H275     1.0000 0.57830  0.85020  0.49620  Biso   1.000  H
  H276     1.0000 0.49280  0.83370  0.47460  Biso   1.000  H
  C235     1.0000 0.55820  0.76030  0.52070  Biso   1.000  C
  H277     1.0000 0.52610  0.73540  0.48730  Biso   1.000  H
  H278     1.0000 0.60950  0.75330  0.52220  Biso   1.000  H
  C236     1.0000 0.54910  0.73680  0.58070  Biso   1.000  C
  H279     1.0000 0.59080  0.75170  0.61480  Biso   1.000  H
  H280     1.0000 0.54970  0.69090  0.58140  Biso   1.000  H
  C237     1.0000 0.46090  0.56430  0.60130  Biso   1.000  C
  H281     1.0000 0.44440  0.54010  0.56380  Biso   1.000  H
  H282     1.0000 0.50180  0.59130  0.60000  Biso   1.000  H
  C238     1.0000 0.48850  0.51950  0.65490  Biso   1.000  C
  H283     1.0000 0.52600  0.49170  0.64850  Biso   1.000  H
  H284     1.0000 0.51210  0.54380  0.69160  Biso   1.000  H
  C239     1.0000 0.42600  0.47990  0.66380  Biso   1.000  C
  H285     1.0000 0.43730  0.43550  0.66090  Biso   1.000  H
  H286     1.0000 0.42370  0.48740  0.70430  Biso   1.000  H
  C240     1.0000 0.34970  0.49460  0.61700  Biso   1.000  C
  H287     1.0000 0.31130  0.47110  0.62720  Biso   1.000  H
  H288     1.0000 0.34920  0.48090  0.57700  Biso   1.000  H
  N73      1.0000 0.20560  0.58231  0.68439  Biso   1.000  N
  N74      1.0000 0.10320  0.61771  0.69741  Biso   1.000  N
  N75      1.0000 0.14550  0.57409  0.57528  Biso   1.000  N
  N76      1.0000 0.05030  0.62667  0.58782  Biso   1.000  N
  N77      1.0000 0.03620  0.71214  0.71065  Biso   1.000  N
  N78      1.0000 0.04580  0.81606  0.71474  Biso   1.000  N
  N79      1.0000 0.98770  0.72338  0.60100  Biso   1.000  N
  N80      1.0000 0.97930  0.82735  0.60769  Biso   1.000  N
  N81      1.0000 0.10620  0.91492  0.71023  Biso   1.000  N
  N82      1.0000 0.19790  0.97190  0.69693  Biso   1.000  N
  N83      1.0000 0.03390  0.93087  0.60386  Biso   1.000  N
  N84      1.0000 0.12360  0.99049  0.59206  Biso   1.000  N
  N85      1.0000 0.31570  0.98417  0.67949  Biso   1.000  N
  N86      1.0000 0.41440  0.94823  0.65902  Biso   1.000  N
  N87      1.0000 0.24290  0.99264  0.57304  Biso   1.000  N
  N88      1.0000 0.33340  0.94014  0.55428  Biso   1.000  N
  N89      1.0000 0.47520  0.85094  0.64529  Biso   1.000  N
  N90      1.0000 0.47100  0.74674  0.64647  Biso   1.000  N
  N91      1.0000 0.39690  0.84386  0.53914  Biso   1.000  N
  N92      1.0000 0.41070  0.74097  0.53670  Biso   1.000  N
  N93      1.0000 0.42000  0.64497  0.65971  Biso   1.000  N
  N94      1.0000 0.32830  0.58795  0.67284  Biso   1.000  N
  N95      1.0000 0.35870  0.63991  0.55024  Biso   1.000  N
  N96      1.0000 0.26810  0.58233  0.56419  Biso   1.000  N
  O37      1.0000 0.21569  0.64304  0.76800  Biso   1.000  O
  O38      1.0000 0.13610  0.75779  0.78264  Biso   1.000  O
  O39      1.0000 0.22704  0.89181  0.76635  Biso   1.000  O
  O40      1.0000 0.40061  0.92303  0.75061  Biso   1.000  O
  O41      1.0000 0.48290  0.80129  0.73488  Biso   1.000  O
  O42      1.0000 0.38960  0.65988  0.74652  Biso   1.000  O
  O43      1.0000 0.07860  0.64358  0.50052  Biso   1.000  O
  O44      1.0000 0.98850  0.78488  0.51933  Biso   1.000  O
  O45      1.0000 0.04885  0.93427  0.50966  Biso   1.000  O
  O46      1.0000 0.21209  0.92579  0.49134  Biso   1.000  O
  O47      1.0000 0.31113  0.78697  0.46352  Biso   1.000  O
  O48      1.0000 0.24120  0.64384  0.47820  Biso   1.000  O
