data_image0
_cell_length_a       19.087
_cell_length_b       21.406
_cell_length_c       23.42
_cell_angle_alpha    90
_cell_angle_beta     108.428
_cell_angle_gamma    90

_symmetry_space_group_name_H-M    "P 1"
_symmetry_int_tables_number       1

loop_
  _symmetry_equiv_pos_as_xyz
  'x, y, z'

loop_
  _atom_site_label
  _atom_site_occupancy
  _atom_site_fract_x
  _atom_site_fract_y
  _atom_site_fract_z
  _atom_site_thermal_displace_type
  _atom_site_B_iso_or_equiv
  _atom_site_type_symbol
  La1      1.0000 0.24401  0.72319  0.64501  Biso   1.000  La
  C1       1.0000 0.42080  0.76540  0.76010  Biso   1.000  C
  C2       1.0000 0.52170  0.80840  0.83430  Biso   1.000  C
  C3       1.0000 0.52370  0.73520  0.84120  Biso   1.000  C
  C4       1.0000 0.51130  0.78210  0.92720  Biso   1.000  C
  C5       1.0000 0.44230  0.65200  0.77140  Biso   1.000  C
  H1       1.0000 0.41600  0.65120  0.72800  Biso   1.000  H
  H2       1.0000 0.48780  0.62780  0.77840  Biso   1.000  H
  C6       1.0000 0.51440  0.66740  0.92940  Biso   1.000  C
  H3       1.0000 0.55460  0.64290  0.92300  Biso   1.000  H
  H4       1.0000 0.52700  0.67540  0.97260  Biso   1.000  H
  C7       1.0000 0.32280  0.62020  0.77910  Biso   1.000  C
  C8       1.0000 0.42590  0.58850  0.85860  Biso   1.000  C
  C9       1.0000 0.35530  0.55560  0.86390  Biso   1.000  C
  C10      1.0000 0.40760  0.61950  0.94850  Biso   1.000  C
  C11      1.0000 0.21950  0.56340  0.79260  Biso   1.000  C
  H5       1.0000 0.21880  0.51780  0.79550  Biso   1.000  H
  H6       1.0000 0.19890  0.57460  0.75000  Biso   1.000  H
  C12      1.0000 0.30310  0.55310  0.95280  Biso   1.000  C
  H7       1.0000 0.32520  0.55810  0.99640  Biso   1.000  H
  H8       1.0000 0.29530  0.50830  0.94450  Biso   1.000  H
  C13      1.0000 0.12210  0.63510  0.80160  Biso   1.000  C
  C14      1.0000 0.16760  0.56630  0.88270  Biso   1.000  C
  C15      1.0000 0.10320  0.60670  0.89210  Biso   1.000  C
  C16      1.0000 0.21310  0.62510  0.97000  Biso   1.000  C
  C17      1.0000 0.01800  0.68760  0.82250  Biso   1.000  C
  H9       1.0000 0.97780  0.66670  0.83270  Biso   1.000  H
  H10      1.0000 0.00170  0.69400  0.77880  Biso   1.000  H
  C18      1.0000 0.10500  0.67780  0.98090  Biso   1.000  C
  H11      1.0000 0.13600  0.67820  0.02310  Biso   1.000  H
  H12      1.0000 0.05820  0.65750  0.97880  Biso   1.000  H
  C19      1.0000 0.02630  0.80170  0.81830  Biso   1.000  C
  C20      1.0000 0.02520  0.76090  0.91100  Biso   1.000  C
  C21      1.0000 0.03020  0.83430  0.91460  Biso   1.000  C
  C22      1.0000 0.13280  0.79050  0.98820  Biso   1.000  C
  C23      1.0000 0.01900  0.91450  0.82970  Biso   1.000  C
  H13      1.0000 0.99460  0.91280  0.78610  Biso   1.000  H
  H14      1.0000 0.98660  0.93760  0.84730  Biso   1.000  H
  C24      1.0000 0.13230  0.90520  0.98260  Biso   1.000  C
  H15      1.0000 0.09160  0.92990  0.98800  Biso   1.000  H
  H16      1.0000 0.16880  0.89920  0.02240  Biso   1.000  H
  C25      1.0000 0.12340  0.95100  0.79870  Biso   1.000  C
  C26      1.0000 0.12630  0.98140  0.89660  Biso   1.000  C
  C27      1.0000 0.19170  0.01390  0.88040  Biso   1.000  C
  C28      1.0000 0.24060  0.94980  0.96440  Biso   1.000  C
  C29      1.0000 0.23090  0.00350  0.78600  Biso   1.000  C
  H17      1.0000 0.23640  0.04910  0.78650  Biso   1.000  H
  H18      1.0000 0.20550  0.99100  0.74430  Biso   1.000  H
  C30      1.0000 0.33030  0.01910  0.94190  Biso   1.000  C
  H19      1.0000 0.35530  0.01460  0.98520  Biso   1.000  H
  H20      1.0000 0.32550  0.06390  0.93290  Biso   1.000  H
  C31      1.0000 0.31920  0.92660  0.77400  Biso   1.000  C
  C32      1.0000 0.36970  0.00380  0.84660  Biso   1.000  C
  C33      1.0000 0.43310  0.96270  0.83760  Biso   1.000  C
  C34      1.0000 0.43200  0.95190  0.93770  Biso   1.000  C
  C35      1.0000 0.42670  0.87920  0.75820  Biso   1.000  C
  H21      1.0000 0.46840  0.90210  0.75250  Biso   1.000  H
  H22      1.0000 0.39070  0.87210  0.71840  Biso   1.000  H
  C36      1.0000 0.53110  0.89410  0.91400  Biso   1.000  C
  H23      1.0000 0.55040  0.89310  0.95800  Biso   1.000  H
  H24      1.0000 0.56910  0.91310  0.89950  Biso   1.000  H
  C37      1.0000 0.58870  0.83260  0.81780  Biso   1.000  C
  H25      1.0000 0.58070  0.87660  0.80580  Biso   1.000  H
  H26      1.0000 0.63290  0.83010  0.85320  Biso   1.000  H
  C38      1.0000 0.60110  0.79560  0.76730  Biso   1.000  C
  H27      1.0000 0.64360  0.81290  0.75780  Biso   1.000  H
  H28      1.0000 0.55770  0.79980  0.73140  Biso   1.000  H
  C39      1.0000 0.61480  0.72600  0.78290  Biso   1.000  C
  H29      1.0000 0.66680  0.71640  0.78870  Biso   1.000  H
  H30      1.0000 0.58480  0.70090  0.74890  Biso   1.000  H
  C40      1.0000 0.59620  0.70690  0.84010  Biso   1.000  C
  H31      1.0000 0.59310  0.66130  0.84170  Biso   1.000  H
  H32      1.0000 0.63600  0.72080  0.87570  Biso   1.000  H
  C41      1.0000 0.48640  0.54130  0.85930  Biso   1.000  C
  H33      1.0000 0.47300  0.51880  0.82100  Biso   1.000  H
  H34      1.0000 0.53300  0.56330  0.86440  Biso   1.000  H
  C42      1.0000 0.49600  0.49550  0.91020  Biso   1.000  C
  H35      1.0000 0.50950  0.51850  0.94840  Biso   1.000  H
  H36      1.0000 0.53680  0.46710  0.91160  Biso   1.000  H
  C43      1.0000 0.42750  0.45750  0.90420  Biso   1.000  C
  H37      1.0000 0.42030  0.45460  0.94370  Biso   1.000  H
  H38      1.0000 0.43500  0.41500  0.89160  Biso   1.000  H
  C44      1.0000 0.35660  0.48480  0.85860  Biso   1.000  C
  H39      1.0000 0.35460  0.47320  0.81770  Biso   1.000  H
  H40      1.0000 0.31300  0.46700  0.86630  Biso   1.000  H
  C45      1.0000 0.15010  0.49700  0.88040  Biso   1.000  C
  H41      1.0000 0.15090  0.48270  0.92030  Biso   1.000  H
  H42      1.0000 0.18800  0.47380  0.86910  Biso   1.000  H
  C46      1.0000 0.07360  0.48350  0.83440  Biso   1.000  C
  H43      1.0000 0.07640  0.48990  0.79380  Biso   1.000  H
  H44      1.0000 0.06120  0.43950  0.83790  Biso   1.000  H
  C47      1.0000 0.01350  0.52310  0.84230  Biso   1.000  C
  H45      1.0000 0.97440  0.49610  0.84720  Biso   1.000  H
  H46      1.0000 0.99240  0.54810  0.80580  Biso   1.000  H
  C48      1.0000 0.04000  0.56700  0.89660  Biso   1.000  C
  H47      1.0000 0.99910  0.59390  0.89820  Biso   1.000  H
  H48      1.0000 0.05590  0.54230  0.93370  Biso   1.000  H
  C49      1.0000 0.95290  0.73760  0.91830  Biso   1.000  C
  H49      1.0000 0.95210  0.69190  0.91730  Biso   1.000  H
  H50      1.0000 0.91140  0.75280  0.88460  Biso   1.000  H
  C50      1.0000 0.94400  0.76050  0.97800  Biso   1.000  C
  H51      1.0000 0.89320  0.75270  0.97750  Biso   1.000  H
  H52      1.0000 0.97710  0.73640  0.01130  Biso   1.000  H
  C51      1.0000 0.96130  0.82990  0.98910  Biso   1.000  C
  H53      1.0000 0.92150  0.84980  0.00070  Biso   1.000  H
  H54      1.0000 0.00710  0.83460  0.02270  Biso   1.000  H
  C52      1.0000 0.96940  0.86290  0.93490  Biso   1.000  C
  H55      1.0000 0.98050  0.90710  0.94450  Biso   1.000  H
  H56      1.0000 0.92260  0.86050  0.90190  Biso   1.000  H
  C53      1.0000 0.07770  0.02780  0.91390  Biso   1.000  C
  H57      1.0000 0.10620  0.04890  0.95110  Biso   1.000  H
  H58      1.0000 0.03680  0.00560  0.92190  Biso   1.000  H
  C54      1.0000 0.04620  0.07670  0.86510  Biso   1.000  C
  H59      1.0000 0.00640  0.05780  0.83240  Biso   1.000  H
  H60      1.0000 0.02510  0.11110  0.88190  Biso   1.000  H
  C55      1.0000 0.10460  0.10260  0.83960  Biso   1.000  C
  H61      1.0000 0.09460  0.08720  0.79840  Biso   1.000  H
  H62      1.0000 0.10070  0.14820  0.83790  Biso   1.000  H
  C56      1.0000 0.18260  0.08450  0.87650  Biso   1.000  C
  H63      1.0000 0.19390  0.10190  0.91710  Biso   1.000  H
  H64      1.0000 0.21750  0.10230  0.85800  Biso   1.000  H
  C57      1.0000 0.37770  0.07290  0.83380  Biso   1.000  C
  H65      1.0000 0.36900  0.07870  0.79060  Biso   1.000  H
  H66      1.0000 0.34030  0.09700  0.84500  Biso   1.000  H
  C58      1.0000 0.45430  0.09730  0.86880  Biso   1.000  C
  H67      1.0000 0.45860  0.10010  0.91150  Biso   1.000  H
  H68      1.0000 0.46000  0.13960  0.85470  Biso   1.000  H
  C59      1.0000 0.51660  0.05610  0.86210  Biso   1.000  C
  H69      1.0000 0.54490  0.03960  0.90160  Biso   1.000  H
  H70      1.0000 0.54990  0.08170  0.84740  Biso   1.000  H
  C60      1.0000 0.48820  0.00170  0.81870  Biso   1.000  C
  H71      1.0000 0.46470  0.01800  0.77810  Biso   1.000  H
  H72      1.0000 0.52990  0.97540  0.81790  Biso   1.000  H
  N1       1.0000 0.45290  0.81920  0.78490  Biso   1.000  N
  N2       1.0000 0.46180  0.71560  0.78920  Biso   1.000  N
  N3       1.0000 0.51890  0.82990  0.89170  Biso   1.000  N
  N4       1.0000 0.50950  0.72660  0.89840  Biso   1.000  N
  N5       1.0000 0.39740  0.62190  0.80170  Biso   1.000  N
  N6       1.0000 0.29500  0.58470  0.81490  Biso   1.000  N
  N7       1.0000 0.44760  0.63080  0.91020  Biso   1.000  N
  N8       1.0000 0.35440  0.57600  0.92390  Biso   1.000  N
  N9       1.0000 0.17250  0.58950  0.82500  Biso   1.000  N
  N10      1.0000 0.08210  0.64680  0.83870  Biso   1.000  N
  N11      1.0000 0.23160  0.58430  0.93390  Biso   1.000  N
  N12      1.0000 0.14110  0.64120  0.94730  Biso   1.000  N
  N13      1.0000 0.03130  0.74810  0.85210  Biso   1.000  N
  N14      1.0000 0.02750  0.85120  0.85320  Biso   1.000  N
  N15      1.0000 0.08990  0.74180  0.96020  Biso   1.000  N
  N16      1.0000 0.10360  0.84390  0.95820  Biso   1.000  N
  N17      1.0000 0.08780  0.94820  0.84160  Biso   1.000  N
  N18      1.0000 0.18520  0.98710  0.82200  Biso   1.000  N
  N19      1.0000 0.16590  0.94000  0.94600  Biso   1.000  N
  N20      1.0000 0.25760  0.99230  0.92740  Biso   1.000  N
  N21      1.0000 0.30340  0.97560  0.80520  Biso   1.000  N
  N22      1.0000 0.39270  0.91800  0.79260  Biso   1.000  N
  N23      1.0000 0.37600  0.99150  0.90990  Biso   1.000  N
  N24      1.0000 0.46600  0.93370  0.89620  Biso   1.000  N
  O1       1.0000 0.36560  0.76080  0.71510  Biso   1.000  O
  O2       1.0000 0.28500  0.64680  0.73220  Biso   1.000  O
  O3       1.0000 0.11270  0.66090  0.75180  Biso   1.000  O
  O4       1.0000 0.02010  0.80310  0.76480  Biso   1.000  O
  O5       1.0000 0.10290  0.92640  0.74960  Biso   1.000  O
  O6       1.0000 0.27270  0.89590  0.73609  Biso   1.000  O
  O7       1.0000 0.50820  0.78760  0.97910  Biso   1.000  O
  O8       1.0000 0.41890  0.64440  0.99800  Biso   1.000  O
  O9       1.0000 0.25640  0.64540  0.01766  Biso   1.000  O
  O10      1.0000 0.18840  0.78694  0.03278  Biso   1.000  O
  O11      1.0000 0.28600  0.92497  0.00783  Biso   1.000  O
  O12      1.0000 0.44980  0.93510  0.98968  Biso   1.000  O
  La2      1.0000 0.24401  0.77681  0.14501  Biso   1.000  La
  C61      1.0000 0.42080  0.73460  0.26010  Biso   1.000  C
  C62      1.0000 0.52170  0.69160  0.33430  Biso   1.000  C
  C63      1.0000 0.52370  0.76480  0.34120  Biso   1.000  C
  C64      1.0000 0.51130  0.71790  0.42720  Biso   1.000  C
  C65      1.0000 0.44230  0.84800  0.27140  Biso   1.000  C
  H73      1.0000 0.41600  0.84880  0.22800  Biso   1.000  H
  H74      1.0000 0.48780  0.87220  0.27840  Biso   1.000  H
  C66      1.0000 0.51440  0.83260  0.42940  Biso   1.000  C
  H75      1.0000 0.55460  0.85710  0.42300  Biso   1.000  H
  H76      1.0000 0.52700  0.82460  0.47260  Biso   1.000  H
  C67      1.0000 0.32280  0.87980  0.27910  Biso   1.000  C
  C68      1.0000 0.42590  0.91150  0.35860  Biso   1.000  C
  C69      1.0000 0.35530  0.94440  0.36390  Biso   1.000  C
  C70      1.0000 0.40760  0.88050  0.44850  Biso   1.000  C
  C71      1.0000 0.21950  0.93660  0.29260  Biso   1.000  C
  H77      1.0000 0.21880  0.98220  0.29550  Biso   1.000  H
  H78      1.0000 0.19890  0.92540  0.25000  Biso   1.000  H
  C72      1.0000 0.30310  0.94690  0.45280  Biso   1.000  C
  H79      1.0000 0.32520  0.94190  0.49640  Biso   1.000  H
  H80      1.0000 0.29530  0.99170  0.44450  Biso   1.000  H
  C73      1.0000 0.12210  0.86490  0.30160  Biso   1.000  C
  C74      1.0000 0.16760  0.93370  0.38270  Biso   1.000  C
  C75      1.0000 0.10320  0.89330  0.39210  Biso   1.000  C
  C76      1.0000 0.21310  0.87490  0.47000  Biso   1.000  C
  C77      1.0000 0.01800  0.81240  0.32250  Biso   1.000  C
  H81      1.0000 0.97780  0.83330  0.33270  Biso   1.000  H
  H82      1.0000 0.00170  0.80600  0.27880  Biso   1.000  H
  C78      1.0000 0.10500  0.82220  0.48090  Biso   1.000  C
  H83      1.0000 0.13600  0.82180  0.52310  Biso   1.000  H
  H84      1.0000 0.05820  0.84250  0.47880  Biso   1.000  H
  C79      1.0000 0.02630  0.69830  0.31830  Biso   1.000  C
  C80      1.0000 0.02520  0.73910  0.41100  Biso   1.000  C
  C81      1.0000 0.03020  0.66570  0.41460  Biso   1.000  C
  C82      1.0000 0.13280  0.70950  0.48820  Biso   1.000  C
  C83      1.0000 0.01900  0.58550  0.32970  Biso   1.000  C
  H85      1.0000 0.99460  0.58720  0.28610  Biso   1.000  H
  H86      1.0000 0.98660  0.56240  0.34730  Biso   1.000  H
  C84      1.0000 0.13230  0.59480  0.48260  Biso   1.000  C
  H87      1.0000 0.09160  0.57010  0.48800  Biso   1.000  H
  H88      1.0000 0.16880  0.60080  0.52240  Biso   1.000  H
  C85      1.0000 0.12340  0.54900  0.29870  Biso   1.000  C
  C86      1.0000 0.12630  0.51860  0.39660  Biso   1.000  C
  C87      1.0000 0.19170  0.48610  0.38040  Biso   1.000  C
  C88      1.0000 0.24060  0.55020  0.46440  Biso   1.000  C
  C89      1.0000 0.23090  0.49650  0.28600  Biso   1.000  C
  H89      1.0000 0.23640  0.45090  0.28650  Biso   1.000  H
  H90      1.0000 0.20550  0.50900  0.24430  Biso   1.000  H
  C90      1.0000 0.33030  0.48090  0.44190  Biso   1.000  C
  H91      1.0000 0.35530  0.48540  0.48520  Biso   1.000  H
  H92      1.0000 0.32550  0.43610  0.43290  Biso   1.000  H
  C91      1.0000 0.31920  0.57340  0.27400  Biso   1.000  C
  C92      1.0000 0.36970  0.49620  0.34660  Biso   1.000  C
  C93      1.0000 0.43310  0.53730  0.33760  Biso   1.000  C
  C94      1.0000 0.43200  0.54810  0.43770  Biso   1.000  C
  C95      1.0000 0.42670  0.62080  0.25820  Biso   1.000  C
  H93      1.0000 0.46840  0.59790  0.25250  Biso   1.000  H
  H94      1.0000 0.39070  0.62790  0.21840  Biso   1.000  H
  C96      1.0000 0.53110  0.60590  0.41400  Biso   1.000  C
  H95      1.0000 0.55040  0.60690  0.45800  Biso   1.000  H
  H96      1.0000 0.56910  0.58690  0.39950  Biso   1.000  H
  C97      1.0000 0.58870  0.66740  0.31780  Biso   1.000  C
  H97      1.0000 0.58070  0.62340  0.30580  Biso   1.000  H
  H98      1.0000 0.63290  0.66990  0.35320  Biso   1.000  H
  C98      1.0000 0.60110  0.70440  0.26730  Biso   1.000  C
  H99      1.0000 0.64360  0.68710  0.25780  Biso   1.000  H
  H100     1.0000 0.55770  0.70020  0.23140  Biso   1.000  H
  C99      1.0000 0.61480  0.77400  0.28290  Biso   1.000  C
  H101     1.0000 0.66680  0.78360  0.28870  Biso   1.000  H
  H102     1.0000 0.58480  0.79910  0.24890  Biso   1.000  H
  C100     1.0000 0.59620  0.79310  0.34010  Biso   1.000  C
  H103     1.0000 0.59310  0.83870  0.34170  Biso   1.000  H
  H104     1.0000 0.63600  0.77920  0.37570  Biso   1.000  H
  C101     1.0000 0.48640  0.95870  0.35930  Biso   1.000  C
  H105     1.0000 0.47300  0.98120  0.32100  Biso   1.000  H
  H106     1.0000 0.53300  0.93670  0.36440  Biso   1.000  H
  C102     1.0000 0.49600  0.00450  0.41020  Biso   1.000  C
  H107     1.0000 0.50950  0.98150  0.44840  Biso   1.000  H
  H108     1.0000 0.53680  0.03290  0.41160  Biso   1.000  H
  C103     1.0000 0.42750  0.04250  0.40420  Biso   1.000  C
  H109     1.0000 0.42030  0.04540  0.44370  Biso   1.000  H
  H110     1.0000 0.43500  0.08500  0.39160  Biso   1.000  H
  C104     1.0000 0.35660  0.01520  0.35860  Biso   1.000  C
  H111     1.0000 0.35460  0.02680  0.31770  Biso   1.000  H
  H112     1.0000 0.31300  0.03300  0.36630  Biso   1.000  H
  C105     1.0000 0.15010  0.00300  0.38040  Biso   1.000  C
  H113     1.0000 0.15090  0.01730  0.42030  Biso   1.000  H
  H114     1.0000 0.18800  0.02620  0.36910  Biso   1.000  H
  C106     1.0000 0.07360  0.01650  0.33440  Biso   1.000  C
  H115     1.0000 0.07640  0.01010  0.29380  Biso   1.000  H
  H116     1.0000 0.06120  0.06050  0.33790  Biso   1.000  H
  C107     1.0000 0.01350  0.97690  0.34230  Biso   1.000  C
  H117     1.0000 0.97440  0.00390  0.34720  Biso   1.000  H
  H118     1.0000 0.99240  0.95190  0.30580  Biso   1.000  H
  C108     1.0000 0.04000  0.93300  0.39660  Biso   1.000  C
  H119     1.0000 0.99910  0.90610  0.39820  Biso   1.000  H
  H120     1.0000 0.05590  0.95770  0.43370  Biso   1.000  H
  C109     1.0000 0.95290  0.76240  0.41830  Biso   1.000  C
  H121     1.0000 0.95210  0.80810  0.41730  Biso   1.000  H
  H122     1.0000 0.91140  0.74720  0.38460  Biso   1.000  H
  C110     1.0000 0.94400  0.73950  0.47800  Biso   1.000  C
  H123     1.0000 0.89320  0.74730  0.47750  Biso   1.000  H
  H124     1.0000 0.97710  0.76360  0.51130  Biso   1.000  H
  C111     1.0000 0.96130  0.67010  0.48910  Biso   1.000  C
  H125     1.0000 0.92150  0.65020  0.50070  Biso   1.000  H
  H126     1.0000 0.00710  0.66540  0.52270  Biso   1.000  H
  C112     1.0000 0.96940  0.63710  0.43490  Biso   1.000  C
  H127     1.0000 0.98050  0.59290  0.44450  Biso   1.000  H
  H128     1.0000 0.92260  0.63950  0.40190  Biso   1.000  H
  C113     1.0000 0.07770  0.47220  0.41390  Biso   1.000  C
  H129     1.0000 0.10620  0.45110  0.45110  Biso   1.000  H
  H130     1.0000 0.03680  0.49440  0.42190  Biso   1.000  H
  C114     1.0000 0.04620  0.42330  0.36510  Biso   1.000  C
  H131     1.0000 0.00640  0.44220  0.33240  Biso   1.000  H
  H132     1.0000 0.02510  0.38890  0.38190  Biso   1.000  H
  C115     1.0000 0.10460  0.39740  0.33960  Biso   1.000  C
  H133     1.0000 0.09460  0.41280  0.29840  Biso   1.000  H
  H134     1.0000 0.10070  0.35180  0.33790  Biso   1.000  H
  C116     1.0000 0.18260  0.41550  0.37650  Biso   1.000  C
  H135     1.0000 0.19390  0.39810  0.41710  Biso   1.000  H
  H136     1.0000 0.21750  0.39770  0.35800  Biso   1.000  H
  C117     1.0000 0.37770  0.42710  0.33380  Biso   1.000  C
  H137     1.0000 0.36900  0.42130  0.29060  Biso   1.000  H
  H138     1.0000 0.34030  0.40300  0.34500  Biso   1.000  H
  C118     1.0000 0.45430  0.40270  0.36880  Biso   1.000  C
  H139     1.0000 0.45860  0.39990  0.41150  Biso   1.000  H
  H140     1.0000 0.46000  0.36040  0.35470  Biso   1.000  H
  C119     1.0000 0.51660  0.44390  0.36210  Biso   1.000  C
  H141     1.0000 0.54490  0.46040  0.40160  Biso   1.000  H
  H142     1.0000 0.54990  0.41830  0.34740  Biso   1.000  H
  C120     1.0000 0.48820  0.49830  0.31870  Biso   1.000  C
  H143     1.0000 0.46470  0.48200  0.27810  Biso   1.000  H
  H144     1.0000 0.52990  0.52460  0.31790  Biso   1.000  H
  N25      1.0000 0.45290  0.68080  0.28490  Biso   1.000  N
  N26      1.0000 0.46180  0.78440  0.28920  Biso   1.000  N
  N27      1.0000 0.51890  0.67010  0.39170  Biso   1.000  N
  N28      1.0000 0.50950  0.77340  0.39840  Biso   1.000  N
  N29      1.0000 0.39740  0.87810  0.30170  Biso   1.000  N
  N30      1.0000 0.29500  0.91530  0.31490  Biso   1.000  N
  N31      1.0000 0.44760  0.86920  0.41020  Biso   1.000  N
  N32      1.0000 0.35440  0.92400  0.42390  Biso   1.000  N
  N33      1.0000 0.17250  0.91050  0.32500  Biso   1.000  N
  N34      1.0000 0.08210  0.85320  0.33870  Biso   1.000  N
  N35      1.0000 0.23160  0.91570  0.43390  Biso   1.000  N
  N36      1.0000 0.14110  0.85880  0.44730  Biso   1.000  N
  N37      1.0000 0.03130  0.75190  0.35210  Biso   1.000  N
  N38      1.0000 0.02750  0.64880  0.35320  Biso   1.000  N
  N39      1.0000 0.08990  0.75820  0.46020  Biso   1.000  N
  N40      1.0000 0.10360  0.65610  0.45820  Biso   1.000  N
  N41      1.0000 0.08780  0.55180  0.34160  Biso   1.000  N
  N42      1.0000 0.18520  0.51290  0.32200  Biso   1.000  N
  N43      1.0000 0.16590  0.56000  0.44600  Biso   1.000  N
  N44      1.0000 0.25760  0.50770  0.42740  Biso   1.000  N
  N45      1.0000 0.30340  0.52440  0.30520  Biso   1.000  N
  N46      1.0000 0.39270  0.58200  0.29260  Biso   1.000  N
  N47      1.0000 0.37600  0.50850  0.40990  Biso   1.000  N
  N48      1.0000 0.46600  0.56630  0.39620  Biso   1.000  N
  O13      1.0000 0.36560  0.73920  0.21510  Biso   1.000  O
  O14      1.0000 0.28500  0.85320  0.23220  Biso   1.000  O
  O15      1.0000 0.11270  0.83910  0.25180  Biso   1.000  O
  O16      1.0000 0.02010  0.69690  0.26480  Biso   1.000  O
  O17      1.0000 0.10290  0.57360  0.24960  Biso   1.000  O
  O18      1.0000 0.27270  0.60410  0.23609  Biso   1.000  O
  O19      1.0000 0.50820  0.71240  0.47910  Biso   1.000  O
  O20      1.0000 0.41890  0.85560  0.49800  Biso   1.000  O
  O21      1.0000 0.25640  0.85460  0.51766  Biso   1.000  O
  O22      1.0000 0.18840  0.71306  0.53278  Biso   1.000  O
  O23      1.0000 0.28600  0.57503  0.50783  Biso   1.000  O
  O24      1.0000 0.44980  0.56490  0.48968  Biso   1.000  O
  La3      1.0000 0.75599  0.22319  0.85499  Biso   1.000  La
  C121     1.0000 0.57920  0.26540  0.73990  Biso   1.000  C
  C122     1.0000 0.47830  0.30840  0.66570  Biso   1.000  C
  C123     1.0000 0.47630  0.23520  0.65880  Biso   1.000  C
  C124     1.0000 0.48870  0.28210  0.57280  Biso   1.000  C
  C125     1.0000 0.55770  0.15200  0.72860  Biso   1.000  C
  H145     1.0000 0.58400  0.15120  0.77200  Biso   1.000  H
  H146     1.0000 0.51220  0.12780  0.72160  Biso   1.000  H
  C126     1.0000 0.48560  0.16740  0.57060  Biso   1.000  C
  H147     1.0000 0.44540  0.14290  0.57700  Biso   1.000  H
  H148     1.0000 0.47300  0.17540  0.52740  Biso   1.000  H
  C127     1.0000 0.67720  0.12020  0.72090  Biso   1.000  C
  C128     1.0000 0.57410  0.08850  0.64140  Biso   1.000  C
  C129     1.0000 0.64470  0.05560  0.63610  Biso   1.000  C
  C130     1.0000 0.59240  0.11950  0.55150  Biso   1.000  C
  C131     1.0000 0.78050  0.06340  0.70740  Biso   1.000  C
  H149     1.0000 0.78120  0.01780  0.70450  Biso   1.000  H
  H150     1.0000 0.80110  0.07460  0.75000  Biso   1.000  H
  C132     1.0000 0.69690  0.05310  0.54720  Biso   1.000  C
  H151     1.0000 0.67480  0.05810  0.50360  Biso   1.000  H
  H152     1.0000 0.70470  0.00830  0.55550  Biso   1.000  H
  C133     1.0000 0.87790  0.13510  0.69840  Biso   1.000  C
  C134     1.0000 0.83240  0.06630  0.61730  Biso   1.000  C
  C135     1.0000 0.89680  0.10670  0.60790  Biso   1.000  C
  C136     1.0000 0.78690  0.12510  0.53000  Biso   1.000  C
  C137     1.0000 0.98200  0.18760  0.67750  Biso   1.000  C
  H153     1.0000 0.02220  0.16670  0.66730  Biso   1.000  H
  H154     1.0000 0.99830  0.19400  0.72120  Biso   1.000  H
  C138     1.0000 0.89500  0.17780  0.51910  Biso   1.000  C
  H155     1.0000 0.86400  0.17820  0.47690  Biso   1.000  H
  H156     1.0000 0.94180  0.15750  0.52120  Biso   1.000  H
  C139     1.0000 0.97370  0.30170  0.68170  Biso   1.000  C
  C140     1.0000 0.97480  0.26090  0.58900  Biso   1.000  C
  C141     1.0000 0.96980  0.33430  0.58540  Biso   1.000  C
  C142     1.0000 0.86720  0.29050  0.51180  Biso   1.000  C
  C143     1.0000 0.98100  0.41450  0.67030  Biso   1.000  C
  H157     1.0000 0.00540  0.41280  0.71390  Biso   1.000  H
  H158     1.0000 0.01340  0.43760  0.65270  Biso   1.000  H
  C144     1.0000 0.86770  0.40520  0.51740  Biso   1.000  C
  H159     1.0000 0.90840  0.42990  0.51200  Biso   1.000  H
  H160     1.0000 0.83120  0.39920  0.47760  Biso   1.000  H
  C145     1.0000 0.87660  0.45100  0.70130  Biso   1.000  C
  C146     1.0000 0.87370  0.48140  0.60340  Biso   1.000  C
  C147     1.0000 0.80830  0.51390  0.61960  Biso   1.000  C
  C148     1.0000 0.75940  0.44980  0.53560  Biso   1.000  C
  C149     1.0000 0.76910  0.50350  0.71400  Biso   1.000  C
  H161     1.0000 0.76360  0.54910  0.71350  Biso   1.000  H
  H162     1.0000 0.79450  0.49100  0.75570  Biso   1.000  H
  C150     1.0000 0.66970  0.51910  0.55810  Biso   1.000  C
  H163     1.0000 0.64470  0.51460  0.51480  Biso   1.000  H
  H164     1.0000 0.67450  0.56390  0.56710  Biso   1.000  H
  C151     1.0000 0.68080  0.42660  0.72600  Biso   1.000  C
  C152     1.0000 0.63030  0.50380  0.65340  Biso   1.000  C
  C153     1.0000 0.56690  0.46270  0.66240  Biso   1.000  C
  C154     1.0000 0.56800  0.45190  0.56230  Biso   1.000  C
  C155     1.0000 0.57330  0.37920  0.74180  Biso   1.000  C
  H165     1.0000 0.53160  0.40210  0.74750  Biso   1.000  H
  H166     1.0000 0.60930  0.37210  0.78160  Biso   1.000  H
  C156     1.0000 0.46890  0.39410  0.58600  Biso   1.000  C
  H167     1.0000 0.44960  0.39310  0.54200  Biso   1.000  H
  H168     1.0000 0.43090  0.41310  0.60050  Biso   1.000  H
  C157     1.0000 0.41130  0.33260  0.68220  Biso   1.000  C
  H169     1.0000 0.41930  0.37660  0.69420  Biso   1.000  H
  H170     1.0000 0.36710  0.33010  0.64680  Biso   1.000  H
  C158     1.0000 0.39890  0.29560  0.73270  Biso   1.000  C
  H171     1.0000 0.35640  0.31290  0.74220  Biso   1.000  H
  H172     1.0000 0.44230  0.29980  0.76860  Biso   1.000  H
  C159     1.0000 0.38520  0.22600  0.71710  Biso   1.000  C
  H173     1.0000 0.33320  0.21640  0.71130  Biso   1.000  H
  H174     1.0000 0.41520  0.20090  0.75110  Biso   1.000  H
  C160     1.0000 0.40380  0.20690  0.65990  Biso   1.000  C
  H175     1.0000 0.40690  0.16130  0.65830  Biso   1.000  H
  H176     1.0000 0.36400  0.22080  0.62430  Biso   1.000  H
  C161     1.0000 0.51360  0.04130  0.64070  Biso   1.000  C
  H177     1.0000 0.52700  0.01880  0.67900  Biso   1.000  H
  H178     1.0000 0.46700  0.06330  0.63560  Biso   1.000  H
  C162     1.0000 0.50400  0.99550  0.58980  Biso   1.000  C
  H179     1.0000 0.49050  0.01850  0.55160  Biso   1.000  H
  H180     1.0000 0.46320  0.96710  0.58840  Biso   1.000  H
  C163     1.0000 0.57250  0.95750  0.59580  Biso   1.000  C
  H181     1.0000 0.57970  0.95460  0.55630  Biso   1.000  H
  H182     1.0000 0.56500  0.91500  0.60840  Biso   1.000  H
  C164     1.0000 0.64340  0.98480  0.64140  Biso   1.000  C
  H183     1.0000 0.64540  0.97320  0.68230  Biso   1.000  H
  H184     1.0000 0.68700  0.96700  0.63370  Biso   1.000  H
  C165     1.0000 0.84990  0.99700  0.61960  Biso   1.000  C
  H185     1.0000 0.84910  0.98270  0.57970  Biso   1.000  H
  H186     1.0000 0.81200  0.97380  0.63090  Biso   1.000  H
  C166     1.0000 0.92640  0.98350  0.66560  Biso   1.000  C
  H187     1.0000 0.92360  0.98990  0.70620  Biso   1.000  H
  H188     1.0000 0.93880  0.93950  0.66210  Biso   1.000  H
  C167     1.0000 0.98650  0.02310  0.65770  Biso   1.000  C
  H189     1.0000 0.02560  0.99610  0.65280  Biso   1.000  H
  H190     1.0000 0.00760  0.04810  0.69420  Biso   1.000  H
  C168     1.0000 0.96000  0.06700  0.60340  Biso   1.000  C
  H191     1.0000 0.00090  0.09390  0.60180  Biso   1.000  H
  H192     1.0000 0.94410  0.04230  0.56630  Biso   1.000  H
  C169     1.0000 0.04710  0.23760  0.58170  Biso   1.000  C
  H193     1.0000 0.04790  0.19190  0.58270  Biso   1.000  H
  H194     1.0000 0.08860  0.25280  0.61540  Biso   1.000  H
  C170     1.0000 0.05600  0.26050  0.52200  Biso   1.000  C
  H195     1.0000 0.10680  0.25270  0.52250  Biso   1.000  H
  H196     1.0000 0.02290  0.23640  0.48870  Biso   1.000  H
  C171     1.0000 0.03870  0.32990  0.51090  Biso   1.000  C
  H197     1.0000 0.07850  0.34980  0.49930  Biso   1.000  H
  H198     1.0000 0.99290  0.33460  0.47730  Biso   1.000  H
  C172     1.0000 0.03060  0.36290  0.56510  Biso   1.000  C
  H199     1.0000 0.01950  0.40710  0.55550  Biso   1.000  H
  H200     1.0000 0.07740  0.36050  0.59810  Biso   1.000  H
  C173     1.0000 0.92230  0.52780  0.58610  Biso   1.000  C
  H201     1.0000 0.89380  0.54890  0.54890  Biso   1.000  H
  H202     1.0000 0.96320  0.50560  0.57810  Biso   1.000  H
  C174     1.0000 0.95380  0.57670  0.63490  Biso   1.000  C
  H203     1.0000 0.99360  0.55780  0.66760  Biso   1.000  H
  H204     1.0000 0.97490  0.61110  0.61810  Biso   1.000  H
  C175     1.0000 0.89540  0.60260  0.66040  Biso   1.000  C
  H205     1.0000 0.90540  0.58720  0.70160  Biso   1.000  H
  H206     1.0000 0.89930  0.64820  0.66210  Biso   1.000  H
  C176     1.0000 0.81740  0.58450  0.62350  Biso   1.000  C
  H207     1.0000 0.80610  0.60190  0.58290  Biso   1.000  H
  H208     1.0000 0.78250  0.60230  0.64200  Biso   1.000  H
  C177     1.0000 0.62230  0.57290  0.66620  Biso   1.000  C
  H209     1.0000 0.63100  0.57870  0.70940  Biso   1.000  H
  H210     1.0000 0.65970  0.59700  0.65500  Biso   1.000  H
  C178     1.0000 0.54570  0.59730  0.63120  Biso   1.000  C
  H211     1.0000 0.54140  0.60010  0.58850  Biso   1.000  H
  H212     1.0000 0.54000  0.63960  0.64530  Biso   1.000  H
  C179     1.0000 0.48340  0.55610  0.63790  Biso   1.000  C
  H213     1.0000 0.45510  0.53960  0.59840  Biso   1.000  H
  H214     1.0000 0.45010  0.58170  0.65260  Biso   1.000  H
  C180     1.0000 0.51180  0.50170  0.68130  Biso   1.000  C
  H215     1.0000 0.53530  0.51800  0.72190  Biso   1.000  H
  H216     1.0000 0.47010  0.47540  0.68210  Biso   1.000  H
  N49      1.0000 0.54710  0.31920  0.71510  Biso   1.000  N
  N50      1.0000 0.53820  0.21560  0.71080  Biso   1.000  N
  N51      1.0000 0.48110  0.32990  0.60830  Biso   1.000  N
  N52      1.0000 0.49050  0.22660  0.60160  Biso   1.000  N
  N53      1.0000 0.60260  0.12190  0.69830  Biso   1.000  N
  N54      1.0000 0.70500  0.08470  0.68510  Biso   1.000  N
  N55      1.0000 0.55240  0.13080  0.58980  Biso   1.000  N
  N56      1.0000 0.64560  0.07600  0.57610  Biso   1.000  N
  N57      1.0000 0.82750  0.08950  0.67500  Biso   1.000  N
  N58      1.0000 0.91790  0.14680  0.66130  Biso   1.000  N
  N59      1.0000 0.76840  0.08430  0.56610  Biso   1.000  N
  N60      1.0000 0.85890  0.14120  0.55270  Biso   1.000  N
  N61      1.0000 0.96870  0.24810  0.64790  Biso   1.000  N
  N62      1.0000 0.97250  0.35120  0.64680  Biso   1.000  N
  N63      1.0000 0.91010  0.24180  0.53980  Biso   1.000  N
  N64      1.0000 0.89640  0.34390  0.54180  Biso   1.000  N
  N65      1.0000 0.91220  0.44820  0.65840  Biso   1.000  N
  N66      1.0000 0.81480  0.48710  0.67800  Biso   1.000  N
  N67      1.0000 0.83410  0.44000  0.55400  Biso   1.000  N
  N68      1.0000 0.74240  0.49230  0.57260  Biso   1.000  N
  N69      1.0000 0.69660  0.47560  0.69480  Biso   1.000  N
  N70      1.0000 0.60730  0.41800  0.70740  Biso   1.000  N
  N71      1.0000 0.62400  0.49150  0.59010  Biso   1.000  N
  N72      1.0000 0.53400  0.43370  0.60380  Biso   1.000  N
  O25      1.0000 0.63440  0.26080  0.78490  Biso   1.000  O
  O26      1.0000 0.71500  0.14680  0.76780  Biso   1.000  O
  O27      1.0000 0.88730  0.16090  0.74820  Biso   1.000  O
  O28      1.0000 0.97990  0.30310  0.73520  Biso   1.000  O
  O29      1.0000 0.89710  0.42640  0.75040  Biso   1.000  O
  O30      1.0000 0.72730  0.39590  0.76391  Biso   1.000  O
  O31      1.0000 0.49180  0.28760  0.52090  Biso   1.000  O
  O32      1.0000 0.58110  0.14440  0.50200  Biso   1.000  O
  O33      1.0000 0.74360  0.14540  0.48234  Biso   1.000  O
  O34      1.0000 0.81160  0.28694  0.46722  Biso   1.000  O
  O35      1.0000 0.71400  0.42497  0.49217  Biso   1.000  O
  O36      1.0000 0.55020  0.43510  0.51032  Biso   1.000  O
  La4      1.0000 0.75599  0.27681  0.35499  Biso   1.000  La
  C181     1.0000 0.57920  0.23460  0.23990  Biso   1.000  C
  C182     1.0000 0.47830  0.19160  0.16570  Biso   1.000  C
  C183     1.0000 0.47630  0.26480  0.15880  Biso   1.000  C
  C184     1.0000 0.48870  0.21790  0.07280  Biso   1.000  C
  C185     1.0000 0.55770  0.34800  0.22860  Biso   1.000  C
  H217     1.0000 0.58400  0.34880  0.27200  Biso   1.000  H
  H218     1.0000 0.51220  0.37220  0.22160  Biso   1.000  H
  C186     1.0000 0.48560  0.33260  0.07060  Biso   1.000  C
  H219     1.0000 0.44540  0.35710  0.07700  Biso   1.000  H
  H220     1.0000 0.47300  0.32460  0.02740  Biso   1.000  H
  C187     1.0000 0.67720  0.37980  0.22090  Biso   1.000  C
  C188     1.0000 0.57410  0.41150  0.14140  Biso   1.000  C
  C189     1.0000 0.64470  0.44440  0.13610  Biso   1.000  C
  C190     1.0000 0.59240  0.38050  0.05150  Biso   1.000  C
  C191     1.0000 0.78050  0.43660  0.20740  Biso   1.000  C
  H221     1.0000 0.78120  0.48220  0.20450  Biso   1.000  H
  H222     1.0000 0.80110  0.42540  0.25000  Biso   1.000  H
  C192     1.0000 0.69690  0.44690  0.04720  Biso   1.000  C
  H223     1.0000 0.67480  0.44190  0.00360  Biso   1.000  H
  H224     1.0000 0.70470  0.49170  0.05550  Biso   1.000  H
  C193     1.0000 0.87790  0.36490  0.19840  Biso   1.000  C
  C194     1.0000 0.83240  0.43370  0.11730  Biso   1.000  C
  C195     1.0000 0.89680  0.39330  0.10790  Biso   1.000  C
  C196     1.0000 0.78690  0.37490  0.03000  Biso   1.000  C
  C197     1.0000 0.98200  0.31240  0.17750  Biso   1.000  C
  H225     1.0000 0.02220  0.33330  0.16730  Biso   1.000  H
  H226     1.0000 0.99830  0.30600  0.22120  Biso   1.000  H
  C198     1.0000 0.89500  0.32220  0.01910  Biso   1.000  C
  H227     1.0000 0.86400  0.32180  0.97690  Biso   1.000  H
  H228     1.0000 0.94180  0.34250  0.02120  Biso   1.000  H
  C199     1.0000 0.97370  0.19830  0.18170  Biso   1.000  C
  C200     1.0000 0.97480  0.23910  0.08900  Biso   1.000  C
  C201     1.0000 0.96980  0.16570  0.08540  Biso   1.000  C
  C202     1.0000 0.86720  0.20950  0.01180  Biso   1.000  C
  C203     1.0000 0.98100  0.08550  0.17030  Biso   1.000  C
  H229     1.0000 0.00540  0.08720  0.21390  Biso   1.000  H
  H230     1.0000 0.01340  0.06240  0.15270  Biso   1.000  H
  C204     1.0000 0.86770  0.09480  0.01740  Biso   1.000  C
  H231     1.0000 0.90840  0.07010  0.01200  Biso   1.000  H
  H232     1.0000 0.83120  0.10080  0.97760  Biso   1.000  H
  C205     1.0000 0.87660  0.04900  0.20130  Biso   1.000  C
  C206     1.0000 0.87370  0.01860  0.10340  Biso   1.000  C
  C207     1.0000 0.80830  0.98610  0.11960  Biso   1.000  C
  C208     1.0000 0.75940  0.05020  0.03560  Biso   1.000  C
  C209     1.0000 0.76910  0.99650  0.21400  Biso   1.000  C
  H233     1.0000 0.76360  0.95090  0.21350  Biso   1.000  H
  H234     1.0000 0.79450  0.00900  0.25570  Biso   1.000  H
  C210     1.0000 0.66970  0.98090  0.05810  Biso   1.000  C
  H235     1.0000 0.64470  0.98540  0.01480  Biso   1.000  H
  H236     1.0000 0.67450  0.93610  0.06710  Biso   1.000  H
  C211     1.0000 0.68080  0.07340  0.22600  Biso   1.000  C
  C212     1.0000 0.63030  0.99620  0.15340  Biso   1.000  C
  C213     1.0000 0.56690  0.03730  0.16240  Biso   1.000  C
  C214     1.0000 0.56800  0.04810  0.06230  Biso   1.000  C
  C215     1.0000 0.57330  0.12080  0.24180  Biso   1.000  C
  H237     1.0000 0.53160  0.09790  0.24750  Biso   1.000  H
  H238     1.0000 0.60930  0.12790  0.28160  Biso   1.000  H
  C216     1.0000 0.46890  0.10590  0.08600  Biso   1.000  C
  H239     1.0000 0.44960  0.10690  0.04200  Biso   1.000  H
  H240     1.0000 0.43090  0.08690  0.10050  Biso   1.000  H
  C217     1.0000 0.41130  0.16740  0.18220  Biso   1.000  C
  H241     1.0000 0.41930  0.12340  0.19420  Biso   1.000  H
  H242     1.0000 0.36710  0.16990  0.14680  Biso   1.000  H
  C218     1.0000 0.39890  0.20440  0.23270  Biso   1.000  C
  H243     1.0000 0.35640  0.18710  0.24220  Biso   1.000  H
  H244     1.0000 0.44230  0.20020  0.26860  Biso   1.000  H
  C219     1.0000 0.38520  0.27400  0.21710  Biso   1.000  C
  H245     1.0000 0.33320  0.28360  0.21130  Biso   1.000  H
  H246     1.0000 0.41520  0.29910  0.25110  Biso   1.000  H
  C220     1.0000 0.40380  0.29310  0.15990  Biso   1.000  C
  H247     1.0000 0.40690  0.33870  0.15830  Biso   1.000  H
  H248     1.0000 0.36400  0.27920  0.12430  Biso   1.000  H
  C221     1.0000 0.51360  0.45870  0.14070  Biso   1.000  C
  H249     1.0000 0.52700  0.48120  0.17900  Biso   1.000  H
  H250     1.0000 0.46700  0.43670  0.13560  Biso   1.000  H
  C222     1.0000 0.50400  0.50450  0.08980  Biso   1.000  C
  H251     1.0000 0.49050  0.48150  0.05160  Biso   1.000  H
  H252     1.0000 0.46320  0.53290  0.08840  Biso   1.000  H
  C223     1.0000 0.57250  0.54250  0.09580  Biso   1.000  C
  H253     1.0000 0.57970  0.54540  0.05630  Biso   1.000  H
  H254     1.0000 0.56500  0.58500  0.10840  Biso   1.000  H
  C224     1.0000 0.64340  0.51520  0.14140  Biso   1.000  C
  H255     1.0000 0.64540  0.52680  0.18230  Biso   1.000  H
  H256     1.0000 0.68700  0.53300  0.13370  Biso   1.000  H
  C225     1.0000 0.84990  0.50300  0.11960  Biso   1.000  C
  H257     1.0000 0.84910  0.51730  0.07970  Biso   1.000  H
  H258     1.0000 0.81200  0.52620  0.13090  Biso   1.000  H
  C226     1.0000 0.92640  0.51650  0.16560  Biso   1.000  C
  H259     1.0000 0.92360  0.51010  0.20620  Biso   1.000  H
  H260     1.0000 0.93880  0.56050  0.16210  Biso   1.000  H
  C227     1.0000 0.98650  0.47690  0.15770  Biso   1.000  C
  H261     1.0000 0.02560  0.50390  0.15280  Biso   1.000  H
  H262     1.0000 0.00760  0.45190  0.19420  Biso   1.000  H
  C228     1.0000 0.96000  0.43300  0.10340  Biso   1.000  C
  H263     1.0000 0.00090  0.40610  0.10180  Biso   1.000  H
  H264     1.0000 0.94410  0.45770  0.06630  Biso   1.000  H
  C229     1.0000 0.04710  0.26240  0.08170  Biso   1.000  C
  H265     1.0000 0.04790  0.30810  0.08270  Biso   1.000  H
  H266     1.0000 0.08860  0.24720  0.11540  Biso   1.000  H
  C230     1.0000 0.05600  0.23950  0.02200  Biso   1.000  C
  H267     1.0000 0.10680  0.24730  0.02250  Biso   1.000  H
  H268     1.0000 0.02290  0.26360  0.98870  Biso   1.000  H
  C231     1.0000 0.03870  0.17010  0.01090  Biso   1.000  C
  H269     1.0000 0.07850  0.15020  0.99930  Biso   1.000  H
  H270     1.0000 0.99290  0.16540  0.97730  Biso   1.000  H
  C232     1.0000 0.03060  0.13710  0.06510  Biso   1.000  C
  H271     1.0000 0.01950  0.09290  0.05550  Biso   1.000  H
  H272     1.0000 0.07740  0.13950  0.09810  Biso   1.000  H
  C233     1.0000 0.92230  0.97220  0.08610  Biso   1.000  C
  H273     1.0000 0.89380  0.95110  0.04890  Biso   1.000  H
  H274     1.0000 0.96320  0.99440  0.07810  Biso   1.000  H
  C234     1.0000 0.95380  0.92330  0.13490  Biso   1.000  C
  H275     1.0000 0.99360  0.94220  0.16760  Biso   1.000  H
  H276     1.0000 0.97490  0.88890  0.11810  Biso   1.000  H
  C235     1.0000 0.89540  0.89740  0.16040  Biso   1.000  C
  H277     1.0000 0.90540  0.91280  0.20160  Biso   1.000  H
  H278     1.0000 0.89930  0.85180  0.16210  Biso   1.000  H
  C236     1.0000 0.81740  0.91550  0.12350  Biso   1.000  C
  H279     1.0000 0.80610  0.89810  0.08290  Biso   1.000  H
  H280     1.0000 0.78250  0.89770  0.14200  Biso   1.000  H
  C237     1.0000 0.62230  0.92710  0.16620  Biso   1.000  C
  H281     1.0000 0.63100  0.92130  0.20940  Biso   1.000  H
  H282     1.0000 0.65970  0.90300  0.15500  Biso   1.000  H
  C238     1.0000 0.54570  0.90270  0.13120  Biso   1.000  C
  H283     1.0000 0.54140  0.89990  0.08850  Biso   1.000  H
  H284     1.0000 0.54000  0.86040  0.14530  Biso   1.000  H
  C239     1.0000 0.48340  0.94390  0.13790  Biso   1.000  C
  H285     1.0000 0.45510  0.96040  0.09840  Biso   1.000  H
  H286     1.0000 0.45010  0.91830  0.15260  Biso   1.000  H
  C240     1.0000 0.51180  0.99830  0.18130  Biso   1.000  C
  H287     1.0000 0.53530  0.98200  0.22190  Biso   1.000  H
  H288     1.0000 0.47010  0.02460  0.18210  Biso   1.000  H
  N73      1.0000 0.54710  0.18080  0.21510  Biso   1.000  N
  N74      1.0000 0.53820  0.28440  0.21080  Biso   1.000  N
  N75      1.0000 0.48110  0.17010  0.10830  Biso   1.000  N
  N76      1.0000 0.49050  0.27340  0.10160  Biso   1.000  N
  N77      1.0000 0.60260  0.37810  0.19830  Biso   1.000  N
  N78      1.0000 0.70500  0.41530  0.18510  Biso   1.000  N
  N79      1.0000 0.55240  0.36920  0.08980  Biso   1.000  N
  N80      1.0000 0.64560  0.42400  0.07610  Biso   1.000  N
  N81      1.0000 0.82750  0.41050  0.17500  Biso   1.000  N
  N82      1.0000 0.91790  0.35320  0.16130  Biso   1.000  N
  N83      1.0000 0.76840  0.41570  0.06610  Biso   1.000  N
  N84      1.0000 0.85890  0.35880  0.05270  Biso   1.000  N
  N85      1.0000 0.96870  0.25190  0.14790  Biso   1.000  N
  N86      1.0000 0.97250  0.14880  0.14680  Biso   1.000  N
  N87      1.0000 0.91010  0.25820  0.03980  Biso   1.000  N
  N88      1.0000 0.89640  0.15610  0.04180  Biso   1.000  N
  N89      1.0000 0.91220  0.05180  0.15840  Biso   1.000  N
  N90      1.0000 0.81480  0.01290  0.17800  Biso   1.000  N
  N91      1.0000 0.83410  0.06000  0.05400  Biso   1.000  N
  N92      1.0000 0.74240  0.00770  0.07260  Biso   1.000  N
  N93      1.0000 0.69660  0.02440  0.19480  Biso   1.000  N
  N94      1.0000 0.60730  0.08200  0.20740  Biso   1.000  N
  N95      1.0000 0.62400  0.00850  0.09010  Biso   1.000  N
  N96      1.0000 0.53400  0.06630  0.10380  Biso   1.000  N
  O37      1.0000 0.63440  0.23920  0.28490  Biso   1.000  O
  O38      1.0000 0.71500  0.35320  0.26780  Biso   1.000  O
  O39      1.0000 0.88730  0.33910  0.24820  Biso   1.000  O
  O40      1.0000 0.97990  0.19690  0.23520  Biso   1.000  O
  O41      1.0000 0.89710  0.07360  0.25040  Biso   1.000  O
  O42      1.0000 0.72730  0.10410  0.26391  Biso   1.000  O
  O43      1.0000 0.49180  0.21240  0.02090  Biso   1.000  O
  O44      1.0000 0.58110  0.35560  0.00200  Biso   1.000  O
  O45      1.0000 0.74360  0.35460  0.98234  Biso   1.000  O
  O46      1.0000 0.81160  0.21306  0.96722  Biso   1.000  O
  O47      1.0000 0.71400  0.07503  0.99217  Biso   1.000  O
  O48      1.0000 0.55020  0.06490  0.01032  Biso   1.000  O
