data_image0
_cell_length_a       18.964
_cell_length_b       21.272
_cell_length_c       23.239
_cell_angle_alpha    90
_cell_angle_beta     109.333
_cell_angle_gamma    90

_symmetry_space_group_name_H-M    "P 1"
_symmetry_int_tables_number       1

loop_
  _symmetry_equiv_pos_as_xyz
  'x, y, z'

loop_
  _atom_site_label
  _atom_site_occupancy
  _atom_site_fract_x
  _atom_site_fract_y
  _atom_site_fract_z
  _atom_site_thermal_displace_type
  _atom_site_B_iso_or_equiv
  _atom_site_type_symbol
  Sm1      1.0000 0.75330  0.28586  0.14689  Biso   1.000  Sm
  O1       1.0000 0.77270  0.10750  0.23210  Biso   1.000  O
  O2       1.0000 0.95080  0.06650  0.49090  Biso   1.000  O
  O3       1.0000 0.59890  0.07750  0.24910  Biso   1.000  O
  O4       1.0000 0.78750  0.07490  0.50910  Biso   1.000  O
  O5       1.0000 0.51590  0.19860  0.26520  Biso   1.000  O
  O6       1.0000 0.60830  0.34110  0.25311  Biso   1.000  O
  O7       1.0000 0.75730  0.35510  0.52228  Biso   1.000  O
  O8       1.0000 0.92070  0.35690  0.50060  Biso   1.000  O
  O9       1.0000 0.78370  0.35750  0.23294  Biso   1.000  O
  O10      1.0000 0.86430  0.24350  0.21800  Biso   1.000  O
  O11      1.0000 0.01120  0.21670  0.48160  Biso   1.000  O
  O12      1.0000 0.68620  0.21347  0.53742  Biso   1.000  O
  N1       1.0000 0.67060  0.41140  0.32760  Biso   1.000  N
  N2       1.0000 0.57920  0.35530  0.34090  Biso   1.000  N
  N3       1.0000 0.63920  0.36010  0.45010  Biso   1.000  N
  N4       1.0000 0.73030  0.41760  0.43720  Biso   1.000  N
  N5       1.0000 0.79360  0.41830  0.31630  Biso   1.000  N
  N6       1.0000 0.89690  0.38290  0.30370  Biso   1.000  N
  N7       1.0000 0.85350  0.42630  0.42610  Biso   1.000  N
  N8       1.0000 0.94920  0.37490  0.41320  Biso   1.000  N
  N9       1.0000 0.95480  0.18560  0.28640  Biso   1.000  N
  N10      1.0000 0.96350  0.28940  0.29090  Biso   1.000  N
  N11      1.0000 0.02140  0.17450  0.39410  Biso   1.000  N
  N12      1.0000 0.01290  0.27810  0.40060  Biso   1.000  N
  N13      1.0000 0.89400  0.08660  0.29060  Biso   1.000  N
  N14      1.0000 0.80190  0.02970  0.30370  Biso   1.000  N
  N15      1.0000 0.87580  0.01070  0.40880  Biso   1.000  N
  N16      1.0000 0.75660  0.00730  0.42760  Biso   1.000  N
  N17      1.0000 0.96600  0.07050  0.39670  Biso   1.000  N
  N18      1.0000 0.68360  0.01620  0.32090  Biso   1.000  N
  N19      1.0000 0.58490  0.05180  0.34120  Biso   1.000  N
  N20      1.0000 0.66590  0.06020  0.44630  Biso   1.000  N
  N21      1.0000 0.52870  0.25320  0.35410  Biso   1.000  N
  N22      1.0000 0.52440  0.14900  0.35450  Biso   1.000  N
  N23      1.0000 0.58670  0.25880  0.46400  Biso   1.000  N
  N24      1.0000 0.60270  0.15610  0.46190  Biso   1.000  N
  C1       1.0000 0.71240  0.37530  0.47460  Biso   1.000  C
  C2       1.0000 0.66570  0.43570  0.38570  Biso   1.000  C
  C3       1.0000 0.60090  0.39520  0.39460  Biso   1.000  C
  C4       1.0000 0.61920  0.36680  0.30280  Biso   1.000  C
  C5       1.0000 0.64860  0.50530  0.38370  Biso   1.000  C
  H1       1.0000 0.68700  0.52840  0.37350  Biso   1.000  H
  H2       1.0000 0.64910  0.51910  0.42360  Biso   1.000  H
  C6       1.0000 0.57250  0.51940  0.33660  Biso   1.000  C
  H3       1.0000 0.56120  0.56360  0.33880  Biso   1.000  H
  H4       1.0000 0.57470  0.51130  0.29620  Biso   1.000  H
  C7       1.0000 0.51000  0.48050  0.34590  Biso   1.000  C
  H5       1.0000 0.48560  0.45670  0.30900  Biso   1.000  H
  H6       1.0000 0.47320  0.50840  0.35280  Biso   1.000  H
  C8       1.0000 0.53800  0.43510  0.39960  Biso   1.000  C
  H7       1.0000 0.55480  0.45890  0.43730  Biso   1.000  H
  H8       1.0000 0.49720  0.40820  0.40070  Biso   1.000  H
  C9       1.0000 0.60190  0.32320  0.48430  Biso   1.000  C
  H9       1.0000 0.63280  0.32320  0.52690  Biso   1.000  H
  H10      1.0000 0.55500  0.34350  0.48130  Biso   1.000  H
  C10      1.0000 0.51470  0.31400  0.32380  Biso   1.000  C
  H11      1.0000 0.49840  0.30740  0.28010  Biso   1.000  H
  H12      1.0000 0.47430  0.33460  0.33340  Biso   1.000  H
  C11      1.0000 0.52330  0.20020  0.31970  Biso   1.000  C
  C12      1.0000 0.52200  0.23940  0.41360  Biso   1.000  C
  C13      1.0000 0.52920  0.16620  0.41750  Biso   1.000  C
  C14      1.0000 0.44910  0.26260  0.41900  Biso   1.000  C
  H13      1.0000 0.40780  0.24750  0.38450  Biso   1.000  H
  H14      1.0000 0.44820  0.30810  0.41820  Biso   1.000  H
  C15      1.0000 0.46650  0.13580  0.43610  Biso   1.000  C
  H15      1.0000 0.41970  0.13820  0.40250  Biso   1.000  H
  H16      1.0000 0.47790  0.09180  0.44580  Biso   1.000  H
  C16      1.0000 0.45880  0.16950  0.49120  Biso   1.000  C
  H17      1.0000 0.50550  0.16590  0.52480  Biso   1.000  H
  H18      1.0000 0.42030  0.14900  0.50340  Biso   1.000  H
  C17      1.0000 0.43910  0.23890  0.47960  Biso   1.000  C
  H19      1.0000 0.47080  0.26350  0.51350  Biso   1.000  H
  H20      1.0000 0.38770  0.24540  0.47760  Biso   1.000  H
  C18      1.0000 0.51510  0.08630  0.33010  Biso   1.000  C
  H21      1.0000 0.48950  0.08850  0.28650  Biso   1.000  H
  H22      1.0000 0.48350  0.06290  0.34780  Biso   1.000  H
  C19      1.0000 0.63190  0.09420  0.48480  Biso   1.000  C
  H23      1.0000 0.59130  0.06900  0.48920  Biso   1.000  H
  H24      1.0000 0.66880  0.09910  0.52500  Biso   1.000  H
  C20      1.0000 0.62070  0.05200  0.29870  Biso   1.000  C
  C21      1.0000 0.63120  0.20940  0.49160  Biso   1.000  C
  C22      1.0000 0.62550  0.01740  0.39600  Biso   1.000  C
  C23      1.0000 0.69090  0.98620  0.37920  Biso   1.000  C
  C24      1.0000 0.74080  0.04970  0.46500  Biso   1.000  C
  C25      1.0000 0.68310  0.91540  0.37460  Biso   1.000  C
  H25      1.0000 0.69500  0.89770  0.41520  Biso   1.000  H
  H26      1.0000 0.71800  0.89850  0.35620  Biso   1.000  H
  C26      1.0000 0.60330  0.89680  0.33620  Biso   1.000  C
  H27      1.0000 0.59990  0.85130  0.33320  Biso   1.000  H
  H28      1.0000 0.59200  0.91360  0.29530  Biso   1.000  H
  C27      1.0000 0.54580  0.92140  0.36410  Biso   1.000  C
  H29      1.0000 0.52620  0.88620  0.38070  Biso   1.000  H
  H30      1.0000 0.50460  0.94030  0.33220  Biso   1.000  H
  C28      1.0000 0.57850  0.97010  0.41490  Biso   1.000  C
  H31      1.0000 0.53810  0.99150  0.42380  Biso   1.000  H
  H32      1.0000 0.60880  0.94890  0.45180  Biso   1.000  H
  C29      1.0000 0.83060  0.98140  0.44130  Biso   1.000  C
  H33      1.0000 0.82620  0.93690  0.43170  Biso   1.000  H
  H34      1.0000 0.85660  0.98540  0.48480  Biso   1.000  H
  C30      1.0000 0.03220  0.10950  0.41610  Biso   1.000  C
  H35      1.0000 0.07020  0.09030  0.40230  Biso   1.000  H
  H36      1.0000 0.05120  0.11020  0.46030  Biso   1.000  H
  C31      1.0000 0.72830  0.00200  0.28330  Biso   1.000  C
  H37      1.0000 0.70210  0.01650  0.24210  Biso   1.000  H
  H38      1.0000 0.73340  0.95680  0.28170  Biso   1.000  H
  C32      1.0000 0.81860  0.07770  0.27180  Biso   1.000  C
  C33      1.0000 0.93190  0.05090  0.43660  Biso   1.000  C
  C34      1.0000 0.86890  0.00000  0.34590  Biso   1.000  C
  C35      1.0000 0.93410  0.04030  0.33730  Biso   1.000  C
  C36      1.0000 0.87580  0.93060  0.33100  Biso   1.000  C
  H39      1.0000 0.83760  0.90670  0.34060  Biso   1.000  H
  H40      1.0000 0.86720  0.92630  0.28770  Biso   1.000  H
  C37      1.0000 0.98850  0.00100  0.31790  Biso   1.000  C
  H41      1.0000 0.03100  0.02650  0.31830  Biso   1.000  H
  H42      1.0000 0.96440  0.98600  0.27660  Biso   1.000  H
  C38      1.0000 0.01540  0.94480  0.36080  Biso   1.000  C
  H43      1.0000 0.04800  0.91900  0.34610  Biso   1.000  H
  H44      1.0000 0.04440  0.96010  0.40100  Biso   1.000  H
  C39      1.0000 0.95130  0.90420  0.36600  Biso   1.000  C
  H45      1.0000 0.95560  0.86240  0.35100  Biso   1.000  H
  H46      1.0000 0.95560  0.90060  0.40870  Biso   1.000  H
  C40      1.0000 0.92910  0.12570  0.25790  Biso   1.000  C
  H47      1.0000 0.89390  0.13320  0.21740  Biso   1.000  H
  H48      1.0000 0.97140  0.10320  0.25330  Biso   1.000  H
  C41      1.0000 0.01430  0.22210  0.43010  Biso   1.000  C
  C42      1.0000 0.02470  0.19590  0.33560  Biso   1.000  C
  C43      1.0000 0.02740  0.26960  0.34290  Biso   1.000  C
  C44      1.0000 0.09260  0.17190  0.32100  Biso   1.000  C
  H49      1.0000 0.08500  0.12800  0.30900  Biso   1.000  H
  H50      1.0000 0.13640  0.17450  0.35730  Biso   1.000  H
  C45      1.0000 0.09950  0.29780  0.34230  Biso   1.000  C
  H51      1.0000 0.13970  0.28410  0.37820  Biso   1.000  H
  H52      1.0000 0.09630  0.34330  0.34400  Biso   1.000  H
  C46      1.0000 0.11770  0.27910  0.28520  Biso   1.000  C
  H53      1.0000 0.08670  0.30350  0.25090  Biso   1.000  H
  H54      1.0000 0.16940  0.28960  0.29120  Biso   1.000  H
  C47      1.0000 0.10580  0.20990  0.26980  Biso   1.000  C
  H55      1.0000 0.14920  0.19340  0.26180  Biso   1.000  H
  H56      1.0000 0.06300  0.20510  0.23300  Biso   1.000  H
  C48      1.0000 0.01810  0.33820  0.43200  Biso   1.000  C
  H57      1.0000 0.05730  0.36290  0.42490  Biso   1.000  H
  H58      1.0000 0.03260  0.33030  0.47550  Biso   1.000  H
  C49      1.0000 0.94240  0.35340  0.27270  Biso   1.000  C
  H59      1.0000 0.98740  0.37810  0.27990  Biso   1.000  H
  H60      1.0000 0.91540  0.35400  0.22920  Biso   1.000  H
  C50      1.0000 0.82190  0.38370  0.28130  Biso   1.000  C
  C51      1.0000 0.85430  0.44850  0.36690  Biso   1.000  C
  C52      1.0000 0.92500  0.41710  0.36000  Biso   1.000  C
  C53      1.0000 0.90850  0.38400  0.45070  Biso   1.000  C
  C54      1.0000 0.85450  0.51870  0.36220  Biso   1.000  C
  H61      1.0000 0.81120  0.53550  0.37030  Biso   1.000  H
  H62      1.0000 0.85080  0.53050  0.32100  Biso   1.000  H
  C55      1.0000 0.92530  0.54760  0.40710  Biso   1.000  C
  H63      1.0000 0.93040  0.59030  0.39440  Biso   1.000  H
  H64      1.0000 0.91990  0.54950  0.44710  Biso   1.000  H
  C56      1.0000 0.99550  0.51180  0.41180  Biso   1.000  C
  H65      1.0000 0.01240  0.48970  0.45040  Biso   1.000  H
  H66      1.0000 0.03430  0.54130  0.41130  Biso   1.000  H
  C57      1.0000 0.98440  0.46490  0.36050  Biso   1.000  C
  H67      1.0000 0.03110  0.44340  0.36550  Biso   1.000  H
  H68      1.0000 0.96970  0.48700  0.32180  Biso   1.000  H
  C58      1.0000 0.71600  0.43870  0.29450  Biso   1.000  C
  H69      1.0000 0.69430  0.42770  0.25170  Biso   1.000  H
  H70      1.0000 0.71450  0.48410  0.29760  Biso   1.000  H
  C59      1.0000 0.80250  0.44800  0.45710  Biso   1.000  C
  H71      1.0000 0.82570  0.44120  0.50050  Biso   1.000  H
  H72      1.0000 0.79510  0.49290  0.45050  Biso   1.000  H
  C60      1.0000 0.92170  0.23920  0.26190  Biso   1.000  C
  Sm2      1.0000 0.75330  0.21414  0.64689  Biso   1.000  Sm
  O13      1.0000 0.77270  0.39250  0.73210  Biso   1.000  O
  O14      1.0000 0.95080  0.43350  0.99090  Biso   1.000  O
  O15      1.0000 0.59890  0.42250  0.74910  Biso   1.000  O
  O16      1.0000 0.78750  0.42510  0.00910  Biso   1.000  O
  O17      1.0000 0.51590  0.30140  0.76520  Biso   1.000  O
  O18      1.0000 0.60830  0.15890  0.75311  Biso   1.000  O
  O19      1.0000 0.75730  0.14490  0.02228  Biso   1.000  O
  O20      1.0000 0.92070  0.14310  0.00060  Biso   1.000  O
  O21      1.0000 0.78370  0.14250  0.73294  Biso   1.000  O
  O22      1.0000 0.86430  0.25650  0.71800  Biso   1.000  O
  O23      1.0000 0.01120  0.28330  0.98160  Biso   1.000  O
  O24      1.0000 0.68620  0.28653  0.03742  Biso   1.000  O
  N25      1.0000 0.67060  0.08860  0.82760  Biso   1.000  N
  N26      1.0000 0.57920  0.14470  0.84090  Biso   1.000  N
  N27      1.0000 0.63920  0.13990  0.95010  Biso   1.000  N
  N28      1.0000 0.73030  0.08240  0.93720  Biso   1.000  N
  N29      1.0000 0.79360  0.08170  0.81630  Biso   1.000  N
  N30      1.0000 0.89690  0.11710  0.80370  Biso   1.000  N
  N31      1.0000 0.85350  0.07370  0.92610  Biso   1.000  N
  N32      1.0000 0.94920  0.12510  0.91320  Biso   1.000  N
  N33      1.0000 0.95480  0.31440  0.78640  Biso   1.000  N
  N34      1.0000 0.96350  0.21060  0.79090  Biso   1.000  N
  N35      1.0000 0.02140  0.32550  0.89410  Biso   1.000  N
  N36      1.0000 0.01290  0.22190  0.90060  Biso   1.000  N
  N37      1.0000 0.89400  0.41340  0.79060  Biso   1.000  N
  N38      1.0000 0.80190  0.47030  0.80370  Biso   1.000  N
  N39      1.0000 0.87580  0.48930  0.90880  Biso   1.000  N
  N40      1.0000 0.75660  0.49270  0.92760  Biso   1.000  N
  N41      1.0000 0.96600  0.42950  0.89670  Biso   1.000  N
  N42      1.0000 0.68360  0.48380  0.82090  Biso   1.000  N
  N43      1.0000 0.58490  0.44820  0.84120  Biso   1.000  N
  N44      1.0000 0.66590  0.43980  0.94630  Biso   1.000  N
  N45      1.0000 0.52870  0.24680  0.85410  Biso   1.000  N
  N46      1.0000 0.52440  0.35100  0.85450  Biso   1.000  N
  N47      1.0000 0.58670  0.24120  0.96400  Biso   1.000  N
  N48      1.0000 0.60270  0.34390  0.96190  Biso   1.000  N
  C61      1.0000 0.71240  0.12470  0.97460  Biso   1.000  C
  C62      1.0000 0.66570  0.06430  0.88570  Biso   1.000  C
  C63      1.0000 0.60090  0.10480  0.89460  Biso   1.000  C
  C64      1.0000 0.61920  0.13320  0.80280  Biso   1.000  C
  C65      1.0000 0.64860  0.99470  0.88370  Biso   1.000  C
  H73      1.0000 0.68700  0.97160  0.87350  Biso   1.000  H
  H74      1.0000 0.64910  0.98090  0.92360  Biso   1.000  H
  C66      1.0000 0.57250  0.98060  0.83660  Biso   1.000  C
  H75      1.0000 0.56120  0.93640  0.83880  Biso   1.000  H
  H76      1.0000 0.57470  0.98870  0.79620  Biso   1.000  H
  C67      1.0000 0.51000  0.01950  0.84590  Biso   1.000  C
  H77      1.0000 0.48560  0.04330  0.80900  Biso   1.000  H
  H78      1.0000 0.47320  0.99160  0.85280  Biso   1.000  H
  C68      1.0000 0.53800  0.06490  0.89960  Biso   1.000  C
  H79      1.0000 0.55480  0.04110  0.93730  Biso   1.000  H
  H80      1.0000 0.49720  0.09180  0.90070  Biso   1.000  H
  C69      1.0000 0.60190  0.17680  0.98430  Biso   1.000  C
  H81      1.0000 0.63280  0.17680  0.02690  Biso   1.000  H
  H82      1.0000 0.55500  0.15650  0.98130  Biso   1.000  H
  C70      1.0000 0.51470  0.18600  0.82380  Biso   1.000  C
  H83      1.0000 0.49840  0.19260  0.78010  Biso   1.000  H
  H84      1.0000 0.47430  0.16540  0.83340  Biso   1.000  H
  C71      1.0000 0.52330  0.29980  0.81970  Biso   1.000  C
  C72      1.0000 0.52200  0.26060  0.91360  Biso   1.000  C
  C73      1.0000 0.52920  0.33380  0.91750  Biso   1.000  C
  C74      1.0000 0.44910  0.23740  0.91900  Biso   1.000  C
  H85      1.0000 0.40780  0.25250  0.88450  Biso   1.000  H
  H86      1.0000 0.44820  0.19190  0.91820  Biso   1.000  H
  C75      1.0000 0.46650  0.36420  0.93610  Biso   1.000  C
  H87      1.0000 0.41970  0.36180  0.90250  Biso   1.000  H
  H88      1.0000 0.47790  0.40820  0.94580  Biso   1.000  H
  C76      1.0000 0.45880  0.33050  0.99120  Biso   1.000  C
  H89      1.0000 0.50550  0.33410  0.02480  Biso   1.000  H
  H90      1.0000 0.42030  0.35100  0.00340  Biso   1.000  H
  C77      1.0000 0.43910  0.26110  0.97960  Biso   1.000  C
  H91      1.0000 0.47080  0.23650  0.01350  Biso   1.000  H
  H92      1.0000 0.38770  0.25460  0.97760  Biso   1.000  H
  C78      1.0000 0.51510  0.41370  0.83010  Biso   1.000  C
  H93      1.0000 0.48950  0.41150  0.78650  Biso   1.000  H
  H94      1.0000 0.48350  0.43710  0.84780  Biso   1.000  H
  C79      1.0000 0.63190  0.40580  0.98480  Biso   1.000  C
  H95      1.0000 0.59130  0.43100  0.98920  Biso   1.000  H
  H96      1.0000 0.66880  0.40090  0.02500  Biso   1.000  H
  C80      1.0000 0.62070  0.44800  0.79870  Biso   1.000  C
  C81      1.0000 0.63120  0.29060  0.99160  Biso   1.000  C
  C82      1.0000 0.62550  0.48260  0.89600  Biso   1.000  C
  C83      1.0000 0.69090  0.51380  0.87920  Biso   1.000  C
  C84      1.0000 0.74080  0.45030  0.96500  Biso   1.000  C
  C85      1.0000 0.68310  0.58460  0.87460  Biso   1.000  C
  H97      1.0000 0.69500  0.60230  0.91520  Biso   1.000  H
  H98      1.0000 0.71800  0.60150  0.85620  Biso   1.000  H
  C86      1.0000 0.60330  0.60320  0.83620  Biso   1.000  C
  H99      1.0000 0.59990  0.64870  0.83320  Biso   1.000  H
  H100     1.0000 0.59200  0.58640  0.79530  Biso   1.000  H
  C87      1.0000 0.54580  0.57860  0.86410  Biso   1.000  C
  H101     1.0000 0.52620  0.61380  0.88070  Biso   1.000  H
  H102     1.0000 0.50460  0.55970  0.83220  Biso   1.000  H
  C88      1.0000 0.57850  0.52990  0.91490  Biso   1.000  C
  H103     1.0000 0.53810  0.50850  0.92380  Biso   1.000  H
  H104     1.0000 0.60880  0.55110  0.95180  Biso   1.000  H
  C89      1.0000 0.83060  0.51860  0.94130  Biso   1.000  C
  H105     1.0000 0.82620  0.56310  0.93170  Biso   1.000  H
  H106     1.0000 0.85660  0.51460  0.98480  Biso   1.000  H
  C90      1.0000 0.03220  0.39050  0.91610  Biso   1.000  C
  H107     1.0000 0.07020  0.40970  0.90230  Biso   1.000  H
  H108     1.0000 0.05120  0.38980  0.96030  Biso   1.000  H
  C91      1.0000 0.72830  0.49800  0.78330  Biso   1.000  C
  H109     1.0000 0.70210  0.48350  0.74210  Biso   1.000  H
  H110     1.0000 0.73340  0.54320  0.78170  Biso   1.000  H
  C92      1.0000 0.81860  0.42230  0.77180  Biso   1.000  C
  C93      1.0000 0.93190  0.44910  0.93660  Biso   1.000  C
  C94      1.0000 0.86890  0.50000  0.84590  Biso   1.000  C
  C95      1.0000 0.93410  0.45970  0.83730  Biso   1.000  C
  C96      1.0000 0.87580  0.56940  0.83100  Biso   1.000  C
  H111     1.0000 0.83760  0.59330  0.84060  Biso   1.000  H
  H112     1.0000 0.86720  0.57370  0.78770  Biso   1.000  H
  C97      1.0000 0.98850  0.49900  0.81790  Biso   1.000  C
  H113     1.0000 0.03100  0.47350  0.81830  Biso   1.000  H
  H114     1.0000 0.96440  0.51400  0.77660  Biso   1.000  H
  C98      1.0000 0.01540  0.55520  0.86080  Biso   1.000  C
  H115     1.0000 0.04800  0.58100  0.84610  Biso   1.000  H
  H116     1.0000 0.04440  0.53990  0.90100  Biso   1.000  H
  C99      1.0000 0.95130  0.59580  0.86600  Biso   1.000  C
  H117     1.0000 0.95560  0.63760  0.85100  Biso   1.000  H
  H118     1.0000 0.95560  0.59940  0.90870  Biso   1.000  H
  C100     1.0000 0.92910  0.37430  0.75790  Biso   1.000  C
  H119     1.0000 0.89390  0.36680  0.71740  Biso   1.000  H
  H120     1.0000 0.97140  0.39680  0.75330  Biso   1.000  H
  C101     1.0000 0.01430  0.27790  0.93010  Biso   1.000  C
  C102     1.0000 0.02470  0.30410  0.83560  Biso   1.000  C
  C103     1.0000 0.02740  0.23040  0.84290  Biso   1.000  C
  C104     1.0000 0.09260  0.32810  0.82100  Biso   1.000  C
  H121     1.0000 0.08500  0.37200  0.80900  Biso   1.000  H
  H122     1.0000 0.13640  0.32550  0.85730  Biso   1.000  H
  C105     1.0000 0.09950  0.20220  0.84230  Biso   1.000  C
  H123     1.0000 0.13970  0.21590  0.87820  Biso   1.000  H
  H124     1.0000 0.09630  0.15670  0.84400  Biso   1.000  H
  C106     1.0000 0.11770  0.22090  0.78520  Biso   1.000  C
  H125     1.0000 0.08670  0.19650  0.75090  Biso   1.000  H
  H126     1.0000 0.16940  0.21040  0.79120  Biso   1.000  H
  C107     1.0000 0.10580  0.29010  0.76980  Biso   1.000  C
  H127     1.0000 0.14920  0.30660  0.76180  Biso   1.000  H
  H128     1.0000 0.06300  0.29490  0.73300  Biso   1.000  H
  C108     1.0000 0.01810  0.16180  0.93200  Biso   1.000  C
  H129     1.0000 0.05730  0.13710  0.92490  Biso   1.000  H
  H130     1.0000 0.03260  0.16970  0.97550  Biso   1.000  H
  C109     1.0000 0.94240  0.14660  0.77270  Biso   1.000  C
  H131     1.0000 0.98740  0.12190  0.77990  Biso   1.000  H
  H132     1.0000 0.91540  0.14600  0.72920  Biso   1.000  H
  C110     1.0000 0.82190  0.11630  0.78130  Biso   1.000  C
  C111     1.0000 0.85430  0.05150  0.86690  Biso   1.000  C
  C112     1.0000 0.92500  0.08290  0.86000  Biso   1.000  C
  C113     1.0000 0.90850  0.11600  0.95070  Biso   1.000  C
  C114     1.0000 0.85450  0.98130  0.86220  Biso   1.000  C
  H133     1.0000 0.81120  0.96450  0.87030  Biso   1.000  H
  H134     1.0000 0.85080  0.96950  0.82100  Biso   1.000  H
  C115     1.0000 0.92530  0.95240  0.90710  Biso   1.000  C
  H135     1.0000 0.93040  0.90970  0.89440  Biso   1.000  H
  H136     1.0000 0.91990  0.95050  0.94710  Biso   1.000  H
  C116     1.0000 0.99550  0.98820  0.91180  Biso   1.000  C
  H137     1.0000 0.01240  0.01030  0.95040  Biso   1.000  H
  H138     1.0000 0.03430  0.95870  0.91130  Biso   1.000  H
  C117     1.0000 0.98440  0.03510  0.86050  Biso   1.000  C
  H139     1.0000 0.03110  0.05660  0.86550  Biso   1.000  H
  H140     1.0000 0.96970  0.01300  0.82180  Biso   1.000  H
  C118     1.0000 0.71600  0.06130  0.79450  Biso   1.000  C
  H141     1.0000 0.69430  0.07230  0.75170  Biso   1.000  H
  H142     1.0000 0.71450  0.01590  0.79760  Biso   1.000  H
  C119     1.0000 0.80250  0.05200  0.95710  Biso   1.000  C
  H143     1.0000 0.82570  0.05880  0.00050  Biso   1.000  H
  H144     1.0000 0.79510  0.00710  0.95050  Biso   1.000  H
  C120     1.0000 0.92170  0.26080  0.76190  Biso   1.000  C
  Sm3      1.0000 0.24670  0.78586  0.35311  Biso   1.000  Sm
  O25      1.0000 0.22730  0.60750  0.26790  Biso   1.000  O
  O26      1.0000 0.04920  0.56650  0.00910  Biso   1.000  O
  O27      1.0000 0.40110  0.57750  0.25090  Biso   1.000  O
  O28      1.0000 0.21250  0.57490  0.99090  Biso   1.000  O
  O29      1.0000 0.48410  0.69860  0.23480  Biso   1.000  O
  O30      1.0000 0.39170  0.84110  0.24689  Biso   1.000  O
  O31      1.0000 0.24270  0.85510  0.97772  Biso   1.000  O
  O32      1.0000 0.07930  0.85690  0.99940  Biso   1.000  O
  O33      1.0000 0.21630  0.85750  0.26706  Biso   1.000  O
  O34      1.0000 0.13570  0.74350  0.28200  Biso   1.000  O
  O35      1.0000 0.98880  0.71670  0.01840  Biso   1.000  O
  O36      1.0000 0.31380  0.71347  0.96258  Biso   1.000  O
  N49      1.0000 0.32940  0.91140  0.17240  Biso   1.000  N
  N50      1.0000 0.42080  0.85530  0.15910  Biso   1.000  N
  N51      1.0000 0.36080  0.86010  0.04990  Biso   1.000  N
  N52      1.0000 0.26970  0.91760  0.06280  Biso   1.000  N
  N53      1.0000 0.20640  0.91830  0.18370  Biso   1.000  N
  N54      1.0000 0.10310  0.88290  0.19630  Biso   1.000  N
  N55      1.0000 0.14650  0.92630  0.07390  Biso   1.000  N
  N56      1.0000 0.05080  0.87490  0.08680  Biso   1.000  N
  N57      1.0000 0.04520  0.68560  0.21360  Biso   1.000  N
  N58      1.0000 0.03650  0.78940  0.20910  Biso   1.000  N
  N59      1.0000 0.97860  0.67450  0.10590  Biso   1.000  N
  N60      1.0000 0.98710  0.77810  0.09940  Biso   1.000  N
  N61      1.0000 0.10600  0.58660  0.20940  Biso   1.000  N
  N62      1.0000 0.19810  0.52970  0.19630  Biso   1.000  N
  N63      1.0000 0.12420  0.51070  0.09120  Biso   1.000  N
  N64      1.0000 0.24340  0.50730  0.07240  Biso   1.000  N
  N65      1.0000 0.03400  0.57050  0.10330  Biso   1.000  N
  N66      1.0000 0.31640  0.51620  0.17910  Biso   1.000  N
  N67      1.0000 0.41510  0.55180  0.15880  Biso   1.000  N
  N68      1.0000 0.33410  0.56020  0.05370  Biso   1.000  N
  N69      1.0000 0.47130  0.75320  0.14590  Biso   1.000  N
  N70      1.0000 0.47560  0.64900  0.14550  Biso   1.000  N
  N71      1.0000 0.41330  0.75880  0.03600  Biso   1.000  N
  N72      1.0000 0.39730  0.65610  0.03810  Biso   1.000  N
  C121     1.0000 0.28760  0.87530  0.02540  Biso   1.000  C
  C122     1.0000 0.33430  0.93570  0.11430  Biso   1.000  C
  C123     1.0000 0.39910  0.89520  0.10540  Biso   1.000  C
  C124     1.0000 0.38080  0.86680  0.19720  Biso   1.000  C
  C125     1.0000 0.35140  0.00530  0.11630  Biso   1.000  C
  H145     1.0000 0.31300  0.02840  0.12650  Biso   1.000  H
  H146     1.0000 0.35090  0.01910  0.07640  Biso   1.000  H
  C126     1.0000 0.42750  0.01940  0.16340  Biso   1.000  C
  H147     1.0000 0.43880  0.06360  0.16120  Biso   1.000  H
  H148     1.0000 0.42530  0.01130  0.20380  Biso   1.000  H
  C127     1.0000 0.49000  0.98050  0.15410  Biso   1.000  C
  H149     1.0000 0.51440  0.95670  0.19100  Biso   1.000  H
  H150     1.0000 0.52680  0.00840  0.14720  Biso   1.000  H
  C128     1.0000 0.46200  0.93510  0.10040  Biso   1.000  C
  H151     1.0000 0.44520  0.95890  0.06270  Biso   1.000  H
  H152     1.0000 0.50280  0.90820  0.09930  Biso   1.000  H
  C129     1.0000 0.39810  0.82320  0.01570  Biso   1.000  C
  H153     1.0000 0.36720  0.82320  0.97310  Biso   1.000  H
  H154     1.0000 0.44500  0.84350  0.01870  Biso   1.000  H
  C130     1.0000 0.48530  0.81400  0.17620  Biso   1.000  C
  H155     1.0000 0.50160  0.80740  0.21990  Biso   1.000  H
  H156     1.0000 0.52570  0.83460  0.16660  Biso   1.000  H
  C131     1.0000 0.47670  0.70020  0.18030  Biso   1.000  C
  C132     1.0000 0.47800  0.73940  0.08640  Biso   1.000  C
  C133     1.0000 0.47080  0.66620  0.08250  Biso   1.000  C
  C134     1.0000 0.55090  0.76260  0.08100  Biso   1.000  C
  H157     1.0000 0.59220  0.74750  0.11550  Biso   1.000  H
  H158     1.0000 0.55180  0.80810  0.08180  Biso   1.000  H
  C135     1.0000 0.53350  0.63580  0.06390  Biso   1.000  C
  H159     1.0000 0.58030  0.63820  0.09750  Biso   1.000  H
  H160     1.0000 0.52210  0.59180  0.05420  Biso   1.000  H
  C136     1.0000 0.54120  0.66950  0.00880  Biso   1.000  C
  H161     1.0000 0.49450  0.66590  0.97520  Biso   1.000  H
  H162     1.0000 0.57970  0.64900  0.99660  Biso   1.000  H
  C137     1.0000 0.56090  0.73890  0.02040  Biso   1.000  C
  H163     1.0000 0.52920  0.76350  0.98650  Biso   1.000  H
  H164     1.0000 0.61230  0.74540  0.02240  Biso   1.000  H
  C138     1.0000 0.48490  0.58630  0.16990  Biso   1.000  C
  H165     1.0000 0.51050  0.58850  0.21350  Biso   1.000  H
  H166     1.0000 0.51650  0.56290  0.15220  Biso   1.000  H
  C139     1.0000 0.36810  0.59420  0.01520  Biso   1.000  C
  H167     1.0000 0.40870  0.56900  0.01080  Biso   1.000  H
  H168     1.0000 0.33120  0.59910  0.97500  Biso   1.000  H
  C140     1.0000 0.37930  0.55200  0.20130  Biso   1.000  C
  C141     1.0000 0.36880  0.70940  0.00840  Biso   1.000  C
  C142     1.0000 0.37450  0.51740  0.10400  Biso   1.000  C
  C143     1.0000 0.30910  0.48620  0.12080  Biso   1.000  C
  C144     1.0000 0.25920  0.54970  0.03500  Biso   1.000  C
  C145     1.0000 0.31690  0.41540  0.12540  Biso   1.000  C
  H169     1.0000 0.30500  0.39770  0.08480  Biso   1.000  H
  H170     1.0000 0.28200  0.39850  0.14380  Biso   1.000  H
  C146     1.0000 0.39670  0.39680  0.16380  Biso   1.000  C
  H171     1.0000 0.40010  0.35130  0.16680  Biso   1.000  H
  H172     1.0000 0.40800  0.41360  0.20470  Biso   1.000  H
  C147     1.0000 0.45420  0.42140  0.13590  Biso   1.000  C
  H173     1.0000 0.47380  0.38620  0.11930  Biso   1.000  H
  H174     1.0000 0.49540  0.44030  0.16780  Biso   1.000  H
  C148     1.0000 0.42150  0.47010  0.08510  Biso   1.000  C
  H175     1.0000 0.46190  0.49150  0.07620  Biso   1.000  H
  H176     1.0000 0.39120  0.44890  0.04820  Biso   1.000  H
  C149     1.0000 0.16940  0.48140  0.05870  Biso   1.000  C
  H177     1.0000 0.17380  0.43690  0.06830  Biso   1.000  H
  H178     1.0000 0.14340  0.48540  0.01520  Biso   1.000  H
  C150     1.0000 0.96780  0.60950  0.08390  Biso   1.000  C
  H179     1.0000 0.92980  0.59030  0.09770  Biso   1.000  H
  H180     1.0000 0.94880  0.61020  0.03970  Biso   1.000  H
  C151     1.0000 0.27170  0.50200  0.21670  Biso   1.000  C
  H181     1.0000 0.29790  0.51650  0.25790  Biso   1.000  H
  H182     1.0000 0.26660  0.45680  0.21830  Biso   1.000  H
  C152     1.0000 0.18140  0.57770  0.22820  Biso   1.000  C
  C153     1.0000 0.06810  0.55090  0.06340  Biso   1.000  C
  C154     1.0000 0.13110  0.50000  0.15410  Biso   1.000  C
  C155     1.0000 0.06590  0.54030  0.16270  Biso   1.000  C
  C156     1.0000 0.12420  0.43060  0.16900  Biso   1.000  C
  H183     1.0000 0.16240  0.40670  0.15940  Biso   1.000  H
  H184     1.0000 0.13280  0.42630  0.21230  Biso   1.000  H
  C157     1.0000 0.01150  0.50100  0.18210  Biso   1.000  C
  H185     1.0000 0.96900  0.52650  0.18170  Biso   1.000  H
  H186     1.0000 0.03560  0.48600  0.22340  Biso   1.000  H
  C158     1.0000 0.98460  0.44480  0.13920  Biso   1.000  C
  H187     1.0000 0.95200  0.41900  0.15390  Biso   1.000  H
  H188     1.0000 0.95560  0.46010  0.09900  Biso   1.000  H
  C159     1.0000 0.04870  0.40420  0.13400  Biso   1.000  C
  H189     1.0000 0.04440  0.36240  0.14900  Biso   1.000  H
  H190     1.0000 0.04440  0.40060  0.09130  Biso   1.000  H
  C160     1.0000 0.07090  0.62570  0.24210  Biso   1.000  C
  H191     1.0000 0.10610  0.63320  0.28260  Biso   1.000  H
  H192     1.0000 0.02860  0.60320  0.24670  Biso   1.000  H
  C161     1.0000 0.98570  0.72210  0.06990  Biso   1.000  C
  C162     1.0000 0.97530  0.69590  0.16440  Biso   1.000  C
  C163     1.0000 0.97260  0.76960  0.15710  Biso   1.000  C
  C164     1.0000 0.90740  0.67190  0.17900  Biso   1.000  C
  H193     1.0000 0.91500  0.62800  0.19100  Biso   1.000  H
  H194     1.0000 0.86360  0.67450  0.14270  Biso   1.000  H
  C165     1.0000 0.90050  0.79780  0.15770  Biso   1.000  C
  H195     1.0000 0.86030  0.78410  0.12180  Biso   1.000  H
  H196     1.0000 0.90370  0.84330  0.15600  Biso   1.000  H
  C166     1.0000 0.88230  0.77910  0.21480  Biso   1.000  C
  H197     1.0000 0.91330  0.80350  0.24910  Biso   1.000  H
  H198     1.0000 0.83060  0.78960  0.20880  Biso   1.000  H
  C167     1.0000 0.89420  0.70990  0.23020  Biso   1.000  C
  H199     1.0000 0.85080  0.69340  0.23820  Biso   1.000  H
  H200     1.0000 0.93700  0.70510  0.26700  Biso   1.000  H
  C168     1.0000 0.98190  0.83820  0.06800  Biso   1.000  C
  H201     1.0000 0.94270  0.86290  0.07510  Biso   1.000  H
  H202     1.0000 0.96740  0.83030  0.02450  Biso   1.000  H
  C169     1.0000 0.05760  0.85340  0.22730  Biso   1.000  C
  H203     1.0000 0.01260  0.87810  0.22010  Biso   1.000  H
  H204     1.0000 0.08460  0.85400  0.27080  Biso   1.000  H
  C170     1.0000 0.17810  0.88370  0.21870  Biso   1.000  C
  C171     1.0000 0.14570  0.94850  0.13310  Biso   1.000  C
  C172     1.0000 0.07500  0.91710  0.14000  Biso   1.000  C
  C173     1.0000 0.09150  0.88400  0.04930  Biso   1.000  C
  C174     1.0000 0.14550  0.01870  0.13780  Biso   1.000  C
  H205     1.0000 0.18880  0.03550  0.12970  Biso   1.000  H
  H206     1.0000 0.14920  0.03050  0.17900  Biso   1.000  H
  C175     1.0000 0.07470  0.04760  0.09290  Biso   1.000  C
  H207     1.0000 0.06960  0.09030  0.10560  Biso   1.000  H
  H208     1.0000 0.08010  0.04950  0.05290  Biso   1.000  H
  C176     1.0000 0.00450  0.01180  0.08820  Biso   1.000  C
  H209     1.0000 0.98760  0.98970  0.04960  Biso   1.000  H
  H210     1.0000 0.96570  0.04130  0.08870  Biso   1.000  H
  C177     1.0000 0.01560  0.96490  0.13950  Biso   1.000  C
  H211     1.0000 0.96890  0.94340  0.13450  Biso   1.000  H
  H212     1.0000 0.03030  0.98700  0.17820  Biso   1.000  H
  C178     1.0000 0.28400  0.93870  0.20550  Biso   1.000  C
  H213     1.0000 0.30570  0.92770  0.24830  Biso   1.000  H
  H214     1.0000 0.28550  0.98410  0.20240  Biso   1.000  H
  C179     1.0000 0.19750  0.94800  0.04290  Biso   1.000  C
  H215     1.0000 0.17430  0.94120  0.99950  Biso   1.000  H
  H216     1.0000 0.20490  0.99290  0.04950  Biso   1.000  H
  C180     1.0000 0.07830  0.73920  0.23810  Biso   1.000  C
  Sm4      1.0000 0.24670  0.71414  0.85311  Biso   1.000  Sm
  O37      1.0000 0.22730  0.89250  0.76790  Biso   1.000  O
  O38      1.0000 0.04920  0.93350  0.50910  Biso   1.000  O
  O39      1.0000 0.40110  0.92250  0.75090  Biso   1.000  O
  O40      1.0000 0.21250  0.92510  0.49090  Biso   1.000  O
  O41      1.0000 0.48410  0.80140  0.73480  Biso   1.000  O
  O42      1.0000 0.39170  0.65890  0.74689  Biso   1.000  O
  O43      1.0000 0.24270  0.64490  0.47772  Biso   1.000  O
  O44      1.0000 0.07930  0.64310  0.49940  Biso   1.000  O
  O45      1.0000 0.21630  0.64250  0.76706  Biso   1.000  O
  O46      1.0000 0.13570  0.75650  0.78200  Biso   1.000  O
  O47      1.0000 0.98880  0.78330  0.51840  Biso   1.000  O
  O48      1.0000 0.31380  0.78653  0.46258  Biso   1.000  O
  N73      1.0000 0.32940  0.58860  0.67240  Biso   1.000  N
  N74      1.0000 0.42080  0.64470  0.65910  Biso   1.000  N
  N75      1.0000 0.36080  0.63990  0.54990  Biso   1.000  N
  N76      1.0000 0.26970  0.58240  0.56280  Biso   1.000  N
  N77      1.0000 0.20640  0.58170  0.68370  Biso   1.000  N
  N78      1.0000 0.10310  0.61710  0.69630  Biso   1.000  N
  N79      1.0000 0.14650  0.57370  0.57390  Biso   1.000  N
  N80      1.0000 0.05080  0.62510  0.58680  Biso   1.000  N
  N81      1.0000 0.04520  0.81440  0.71360  Biso   1.000  N
  N82      1.0000 0.03650  0.71060  0.70910  Biso   1.000  N
  N83      1.0000 0.97860  0.82550  0.60590  Biso   1.000  N
  N84      1.0000 0.98710  0.72190  0.59940  Biso   1.000  N
  N85      1.0000 0.10600  0.91340  0.70940  Biso   1.000  N
  N86      1.0000 0.19810  0.97030  0.69630  Biso   1.000  N
  N87      1.0000 0.12420  0.98930  0.59120  Biso   1.000  N
  N88      1.0000 0.24340  0.99270  0.57240  Biso   1.000  N
  N89      1.0000 0.03400  0.92950  0.60330  Biso   1.000  N
  N90      1.0000 0.31640  0.98380  0.67910  Biso   1.000  N
  N91      1.0000 0.41510  0.94820  0.65880  Biso   1.000  N
  N92      1.0000 0.33410  0.93980  0.55370  Biso   1.000  N
  N93      1.0000 0.47130  0.74680  0.64590  Biso   1.000  N
  N94      1.0000 0.47560  0.85100  0.64550  Biso   1.000  N
  N95      1.0000 0.41330  0.74120  0.53600  Biso   1.000  N
  N96      1.0000 0.39730  0.84390  0.53810  Biso   1.000  N
  C181     1.0000 0.28760  0.62470  0.52540  Biso   1.000  C
  C182     1.0000 0.33430  0.56430  0.61430  Biso   1.000  C
  C183     1.0000 0.39910  0.60480  0.60540  Biso   1.000  C
  C184     1.0000 0.38080  0.63320  0.69720  Biso   1.000  C
  C185     1.0000 0.35140  0.49470  0.61630  Biso   1.000  C
  H217     1.0000 0.31300  0.47160  0.62650  Biso   1.000  H
  H218     1.0000 0.35090  0.48090  0.57640  Biso   1.000  H
  C186     1.0000 0.42750  0.48060  0.66340  Biso   1.000  C
  H219     1.0000 0.43880  0.43640  0.66120  Biso   1.000  H
  H220     1.0000 0.42530  0.48870  0.70380  Biso   1.000  H
  C187     1.0000 0.49000  0.51950  0.65410  Biso   1.000  C
  H221     1.0000 0.51440  0.54330  0.69100  Biso   1.000  H
  H222     1.0000 0.52680  0.49160  0.64720  Biso   1.000  H
  C188     1.0000 0.46200  0.56490  0.60040  Biso   1.000  C
  H223     1.0000 0.44520  0.54110  0.56270  Biso   1.000  H
  H224     1.0000 0.50280  0.59180  0.59930  Biso   1.000  H
  C189     1.0000 0.39810  0.67680  0.51570  Biso   1.000  C
  H225     1.0000 0.36720  0.67680  0.47310  Biso   1.000  H
  H226     1.0000 0.44500  0.65650  0.51870  Biso   1.000  H
  C190     1.0000 0.48530  0.68600  0.67620  Biso   1.000  C
  H227     1.0000 0.50160  0.69260  0.71990  Biso   1.000  H
  H228     1.0000 0.52570  0.66540  0.66660  Biso   1.000  H
  C191     1.0000 0.47670  0.79980  0.68030  Biso   1.000  C
  C192     1.0000 0.47800  0.76060  0.58640  Biso   1.000  C
  C193     1.0000 0.47080  0.83380  0.58250  Biso   1.000  C
  C194     1.0000 0.55090  0.73740  0.58100  Biso   1.000  C
  H229     1.0000 0.59220  0.75250  0.61550  Biso   1.000  H
  H230     1.0000 0.55180  0.69190  0.58180  Biso   1.000  H
  C195     1.0000 0.53350  0.86420  0.56390  Biso   1.000  C
  H231     1.0000 0.58030  0.86180  0.59750  Biso   1.000  H
  H232     1.0000 0.52210  0.90820  0.55420  Biso   1.000  H
  C196     1.0000 0.54120  0.83050  0.50880  Biso   1.000  C
  H233     1.0000 0.49450  0.83410  0.47520  Biso   1.000  H
  H234     1.0000 0.57970  0.85100  0.49660  Biso   1.000  H
  C197     1.0000 0.56090  0.76110  0.52040  Biso   1.000  C
  H235     1.0000 0.52920  0.73650  0.48650  Biso   1.000  H
  H236     1.0000 0.61230  0.75460  0.52240  Biso   1.000  H
  C198     1.0000 0.48490  0.91370  0.66990  Biso   1.000  C
  H237     1.0000 0.51050  0.91150  0.71350  Biso   1.000  H
  H238     1.0000 0.51650  0.93710  0.65220  Biso   1.000  H
  C199     1.0000 0.36810  0.90580  0.51520  Biso   1.000  C
  H239     1.0000 0.40870  0.93100  0.51080  Biso   1.000  H
  H240     1.0000 0.33120  0.90090  0.47500  Biso   1.000  H
  C200     1.0000 0.37930  0.94800  0.70130  Biso   1.000  C
  C201     1.0000 0.36880  0.79060  0.50840  Biso   1.000  C
  C202     1.0000 0.37450  0.98260  0.60400  Biso   1.000  C
  C203     1.0000 0.30910  0.01380  0.62080  Biso   1.000  C
  C204     1.0000 0.25920  0.95030  0.53500  Biso   1.000  C
  C205     1.0000 0.31690  0.08460  0.62540  Biso   1.000  C
  H241     1.0000 0.30500  0.10230  0.58480  Biso   1.000  H
  H242     1.0000 0.28200  0.10150  0.64380  Biso   1.000  H
  C206     1.0000 0.39670  0.10320  0.66380  Biso   1.000  C
  H243     1.0000 0.40010  0.14870  0.66680  Biso   1.000  H
  H244     1.0000 0.40800  0.08640  0.70470  Biso   1.000  H
  C207     1.0000 0.45420  0.07860  0.63590  Biso   1.000  C
  H245     1.0000 0.47380  0.11380  0.61930  Biso   1.000  H
  H246     1.0000 0.49540  0.05970  0.66780  Biso   1.000  H
  C208     1.0000 0.42150  0.02990  0.58510  Biso   1.000  C
  H247     1.0000 0.46190  0.00850  0.57620  Biso   1.000  H
  H248     1.0000 0.39120  0.05110  0.54820  Biso   1.000  H
  C209     1.0000 0.16940  0.01860  0.55870  Biso   1.000  C
  H249     1.0000 0.17380  0.06310  0.56830  Biso   1.000  H
  H250     1.0000 0.14340  0.01460  0.51520  Biso   1.000  H
  C210     1.0000 0.96780  0.89050  0.58390  Biso   1.000  C
  H251     1.0000 0.92980  0.90970  0.59770  Biso   1.000  H
  H252     1.0000 0.94880  0.88980  0.53970  Biso   1.000  H
  C211     1.0000 0.27170  0.99800  0.71670  Biso   1.000  C
  H253     1.0000 0.29790  0.98350  0.75790  Biso   1.000  H
  H254     1.0000 0.26660  0.04320  0.71830  Biso   1.000  H
  C212     1.0000 0.18140  0.92230  0.72820  Biso   1.000  C
  C213     1.0000 0.06810  0.94910  0.56340  Biso   1.000  C
  C214     1.0000 0.13110  0.00000  0.65410  Biso   1.000  C
  C215     1.0000 0.06590  0.95970  0.66270  Biso   1.000  C
  C216     1.0000 0.12420  0.06940  0.66900  Biso   1.000  C
  H255     1.0000 0.16240  0.09330  0.65940  Biso   1.000  H
  H256     1.0000 0.13280  0.07370  0.71230  Biso   1.000  H
  C217     1.0000 0.01150  0.99900  0.68210  Biso   1.000  C
  H257     1.0000 0.96900  0.97350  0.68170  Biso   1.000  H
  H258     1.0000 0.03560  0.01400  0.72340  Biso   1.000  H
  C218     1.0000 0.98460  0.05520  0.63920  Biso   1.000  C
  H259     1.0000 0.95200  0.08100  0.65390  Biso   1.000  H
  H260     1.0000 0.95560  0.03990  0.59900  Biso   1.000  H
  C219     1.0000 0.04870  0.09580  0.63400  Biso   1.000  C
  H261     1.0000 0.04440  0.13760  0.64900  Biso   1.000  H
  H262     1.0000 0.04440  0.09940  0.59130  Biso   1.000  H
  C220     1.0000 0.07090  0.87430  0.74210  Biso   1.000  C
  H263     1.0000 0.10610  0.86680  0.78260  Biso   1.000  H
  H264     1.0000 0.02860  0.89680  0.74670  Biso   1.000  H
  C221     1.0000 0.98570  0.77790  0.56990  Biso   1.000  C
  C222     1.0000 0.97530  0.80410  0.66440  Biso   1.000  C
  C223     1.0000 0.97260  0.73040  0.65710  Biso   1.000  C
  C224     1.0000 0.90740  0.82810  0.67900  Biso   1.000  C
  H265     1.0000 0.91500  0.87200  0.69100  Biso   1.000  H
  H266     1.0000 0.86360  0.82550  0.64270  Biso   1.000  H
  C225     1.0000 0.90050  0.70220  0.65770  Biso   1.000  C
  H267     1.0000 0.86030  0.71590  0.62180  Biso   1.000  H
  H268     1.0000 0.90370  0.65670  0.65600  Biso   1.000  H
  C226     1.0000 0.88230  0.72090  0.71480  Biso   1.000  C
  H269     1.0000 0.91330  0.69650  0.74910  Biso   1.000  H
  H270     1.0000 0.83060  0.71040  0.70880  Biso   1.000  H
  C227     1.0000 0.89420  0.79010  0.73020  Biso   1.000  C
  H271     1.0000 0.85080  0.80660  0.73820  Biso   1.000  H
  H272     1.0000 0.93700  0.79490  0.76700  Biso   1.000  H
  C228     1.0000 0.98190  0.66180  0.56800  Biso   1.000  C
  H273     1.0000 0.94270  0.63710  0.57510  Biso   1.000  H
  H274     1.0000 0.96740  0.66970  0.52450  Biso   1.000  H
  C229     1.0000 0.05760  0.64660  0.72730  Biso   1.000  C
  H275     1.0000 0.01260  0.62190  0.72010  Biso   1.000  H
  H276     1.0000 0.08460  0.64600  0.77080  Biso   1.000  H
  C230     1.0000 0.17810  0.61630  0.71870  Biso   1.000  C
  C231     1.0000 0.14570  0.55150  0.63310  Biso   1.000  C
  C232     1.0000 0.07500  0.58290  0.64000  Biso   1.000  C
  C233     1.0000 0.09150  0.61600  0.54930  Biso   1.000  C
  C234     1.0000 0.14550  0.48130  0.63780  Biso   1.000  C
  H277     1.0000 0.18880  0.46450  0.62970  Biso   1.000  H
  H278     1.0000 0.14920  0.46950  0.67900  Biso   1.000  H
  C235     1.0000 0.07470  0.45240  0.59290  Biso   1.000  C
  H279     1.0000 0.06960  0.40970  0.60560  Biso   1.000  H
  H280     1.0000 0.08010  0.45050  0.55290  Biso   1.000  H
  C236     1.0000 0.00450  0.48820  0.58820  Biso   1.000  C
  H281     1.0000 0.98760  0.51030  0.54960  Biso   1.000  H
  H282     1.0000 0.96570  0.45870  0.58870  Biso   1.000  H
  C237     1.0000 0.01560  0.53510  0.63950  Biso   1.000  C
  H283     1.0000 0.96890  0.55660  0.63450  Biso   1.000  H
  H284     1.0000 0.03030  0.51300  0.67820  Biso   1.000  H
  C238     1.0000 0.28400  0.56130  0.70550  Biso   1.000  C
  H285     1.0000 0.30570  0.57230  0.74830  Biso   1.000  H
  H286     1.0000 0.28550  0.51590  0.70240  Biso   1.000  H
  C239     1.0000 0.19750  0.55200  0.54290  Biso   1.000  C
  H287     1.0000 0.17430  0.55880  0.49950  Biso   1.000  H
  H288     1.0000 0.20490  0.50710  0.54950  Biso   1.000  H
  C240     1.0000 0.07830  0.76080  0.73810  Biso   1.000  C
