data_image0
_cell_length_a       19.079
_cell_length_b       21.41
_cell_length_c       23.413
_cell_angle_alpha    90
_cell_angle_beta     108.886
_cell_angle_gamma    90

_symmetry_space_group_name_H-M    "P 1"
_symmetry_int_tables_number       1

loop_
  _symmetry_equiv_pos_as_xyz
  'x, y, z'

loop_
  _atom_site_label
  _atom_site_occupancy
  _atom_site_fract_x
  _atom_site_fract_y
  _atom_site_fract_z
  _atom_site_thermal_displace_type
  _atom_site_B_iso_or_equiv
  _atom_site_type_symbol
  Pr1      1.0000 0.74552  0.27846  0.64510  Biso   1.000  Pr
  C1       1.0000 0.82250  0.38050  0.77951  Biso   1.000  C
  C2       1.0000 0.85440  0.44554  0.86468  Biso   1.000  C
  C3       1.0000 0.92580  0.41310  0.85835  Biso   1.000  C
  C4       1.0000 0.90800  0.38140  0.94896  Biso   1.000  C
  C5       1.0000 0.94310  0.34930  0.77077  Biso   1.000  C
  H1       1.0000 0.91680  0.35020  0.72770  Biso   1.000  H
  H2       1.0000 0.98830  0.37320  0.77800  Biso   1.000  H
  C6       1.0000 0.01580  0.33410  0.92931  Biso   1.000  C
  H3       1.0000 0.05520  0.35850  0.92250  Biso   1.000  H
  H4       1.0000 0.02950  0.32630  0.97230  Biso   1.000  H
  C7       1.0000 0.92100  0.23610  0.75927  Biso   1.000  C
  C8       1.0000 0.02460  0.26580  0.84078  Biso   1.000  C
  C9       1.0000 0.02310  0.19270  0.83356  Biso   1.000  C
  C10      1.0000 0.01220  0.21890  0.92770  Biso   1.000  C
  C11      1.0000 0.92630  0.12180  0.75688  Biso   1.000  C
  H5       1.0000 0.89010  0.12910  0.71750  Biso   1.000  H
  H6       1.0000 0.96750  0.09930  0.75090  Biso   1.000  H
  C12      1.0000 0.03140  0.10640  0.91375  Biso   1.000  C
  H7       1.0000 0.06830  0.08780  0.89870  Biso   1.000  H
  H8       1.0000 0.05160  0.10690  0.95750  Biso   1.000  H
  C13      1.0000 0.81800  0.07460  0.77366  Biso   1.000  C
  C14      1.0000 0.93300  0.03820  0.83695  Biso   1.000  C
  C15      1.0000 0.86850  0.99670  0.84614  Biso   1.000  C
  C16      1.0000 0.93180  0.04896  0.93718  Biso   1.000  C
  C17      1.0000 0.72910  0.99750  0.78474  Biso   1.000  C
  H9       1.0000 0.70360  0.01030  0.74350  Biso   1.000  H
  H10      1.0000 0.73450  0.95250  0.78490  Biso   1.000  H
  C18      1.0000 0.82990  0.98089  0.94165  Biso   1.000  C
  H11      1.0000 0.82530  0.93650  0.93290  Biso   1.000  H
  H12      1.0000 0.85500  0.98550  0.98460  Biso   1.000  H
  C19      1.0000 0.62210  0.04990  0.79934  Biso   1.000  C
  C20      1.0000 0.69070  0.98583  0.87996  Biso   1.000  C
  C21      1.0000 0.62560  0.01786  0.89693  Biso   1.000  C
  C22      1.0000 0.73990  0.05016  0.96438  Biso   1.000  C
  C23      1.0000 0.51710  0.08539  0.83057  Biso   1.000  C
  H13      1.0000 0.48570  0.06230  0.84840  Biso   1.000  H
  H14      1.0000 0.49200  0.08700  0.78740  Biso   1.000  H
  C24      1.0000 0.63140  0.09478  0.98350  Biso   1.000  C
  H15      1.0000 0.66770  0.10050  0.02320  Biso   1.000  H
  H16      1.0000 0.59110  0.07020  0.98850  Biso   1.000  H
  C25      1.0000 0.52450  0.19910  0.81813  Biso   1.000  C
  C26      1.0000 0.52910  0.16628  0.91506  Biso   1.000  C
  C27      1.0000 0.52360  0.23925  0.91173  Biso   1.000  C
  C28      1.0000 0.63160  0.20955  0.98876  Biso   1.000  C
  C29      1.0000 0.51690  0.31327  0.82273  Biso   1.000  C
  H17      1.0000 0.47740  0.33400  0.83300  Biso   1.000  H
  H18      1.0000 0.50010  0.30700  0.77940  Biso   1.000  H
  C30      1.0000 0.60390  0.32295  0.98183  Biso   1.000  C
  H19      1.0000 0.55760  0.34320  0.97960  Biso   1.000  H
  H20      1.0000 0.63480  0.32250  0.02390  Biso   1.000  H
  C31      1.0000 0.62120  0.36550  0.80155  Biso   1.000  C
  C32      1.0000 0.60290  0.39395  0.89257  Biso   1.000  C
  C33      1.0000 0.66760  0.43490  0.88310  Biso   1.000  C
  C34      1.0000 0.71260  0.37513  0.97094  Biso   1.000  C
  C35      1.0000 0.71830  0.43760  0.79334  Biso   1.000  C
  H21      1.0000 0.69730  0.42720  0.75090  Biso   1.000  H
  H22      1.0000 0.71800  0.48270  0.79680  Biso   1.000  H
  C36      1.0000 0.80310  0.44710  0.95365  Biso   1.000  C
  H23      1.0000 0.79560  0.49160  0.94640  Biso   1.000  H
  H24      1.0000 0.82530  0.44120  0.99680  Biso   1.000  H
  C37      1.0000 0.85670  0.51660  0.85890  Biso   1.000  C
  H25      1.0000 0.81340  0.53460  0.86560  Biso   1.000  H
  H26      1.0000 0.85520  0.52730  0.81830  Biso   1.000  H
  C38      1.0000 0.92750  0.54470  0.90470  Biso   1.000  C
  H27      1.0000 0.93410  0.58690  0.89230  Biso   1.000  H
  H28      1.0000 0.92070  0.54720  0.94400  Biso   1.000  H
  C39      1.0000 0.99670  0.50740  0.91070  Biso   1.000  C
  H29      1.0000 0.01100  0.48480  0.94860  Biso   1.000  H
  H30      1.0000 0.03660  0.53590  0.91170  Biso   1.000  H
  C40      1.0000 0.98650  0.46080  0.85870  Biso   1.000  C
  H31      1.0000 0.03280  0.43910  0.86370  Biso   1.000  H
  H32      1.0000 0.97260  0.48290  0.82050  Biso   1.000  H
  C41      1.0000 0.09790  0.29340  0.84000  Biso   1.000  C
  H33      1.0000 0.13730  0.27920  0.87530  Biso   1.000  H
  H34      1.0000 0.09550  0.33860  0.84200  Biso   1.000  H
  C42      1.0000 0.11600  0.27470  0.78260  Biso   1.000  C
  H35      1.0000 0.08600  0.29960  0.74900  Biso   1.000  H
  H36      1.0000 0.16760  0.28410  0.78850  Biso   1.000  H
  C43      1.0000 0.10220  0.20600  0.76700  Biso   1.000  C
  H37      1.0000 0.14430  0.18890  0.75770  Biso   1.000  H
  H38      1.0000 0.05900  0.20200  0.73130  Biso   1.000  H
  C44      1.0000 0.08990  0.16840  0.81830  Biso   1.000  C
  H39      1.0000 0.08210  0.12490  0.80660  Biso   1.000  H
  H40      1.0000 0.13360  0.17110  0.85380  Biso   1.000  H
  C45      1.0000 0.98830  0.99870  0.81820  Biso   1.000  C
  H41      1.0000 0.03020  0.02440  0.81820  Biso   1.000  H
  H42      1.0000 0.96500  0.98320  0.77750  Biso   1.000  H
  C46      1.0000 0.01540  0.94360  0.86150  Biso   1.000  C
  H43      1.0000 0.04420  0.95960  0.90090  Biso   1.000  H
  H44      1.0000 0.04800  0.91790  0.84700  Biso   1.000  H
  C47      1.0000 0.95260  0.90270  0.86840  Biso   1.000  C
  H45      1.0000 0.95750  0.86080  0.85430  Biso   1.000  H
  H46      1.0000 0.95710  0.89990  0.91080  Biso   1.000  H
  C48      1.0000 0.87640  0.92803  0.83330  Biso   1.000  C
  H47      1.0000 0.86770  0.92250  0.79040  Biso   1.000  H
  H48      1.0000 0.83900  0.90430  0.84390  Biso   1.000  H
  C49      1.0000 0.68230  0.91490  0.87650  Biso   1.000  C
  H49      1.0000 0.69370  0.89800  0.91700  Biso   1.000  H
  H50      1.0000 0.71710  0.89740  0.85860  Biso   1.000  H
  C50      1.0000 0.60360  0.89620  0.83900  Biso   1.000  C
  H51      1.0000 0.60010  0.85100  0.83690  Biso   1.000  H
  H52      1.0000 0.59300  0.91190  0.79820  Biso   1.000  H
  C51      1.0000 0.54540  0.92190  0.86570  Biso   1.000  C
  H53      1.0000 0.50510  0.94060  0.83360  Biso   1.000  H
  H54      1.0000 0.52510  0.88760  0.88240  Biso   1.000  H
  C52      1.0000 0.57740  0.97060  0.91510  Biso   1.000  C
  H55      1.0000 0.53710  0.99230  0.92350  Biso   1.000  H
  H56      1.0000 0.60670  0.94970  0.95180  Biso   1.000  H
  C53      1.0000 0.46740  0.13730  0.93510  Biso   1.000  C
  H57      1.0000 0.42080  0.13980  0.90220  Biso   1.000  H
  H58      1.0000 0.47830  0.09350  0.94460  Biso   1.000  H
  C54      1.0000 0.45990  0.17080  0.99020  Biso   1.000  C
  H59      1.0000 0.50600  0.16700  0.02330  Biso   1.000  H
  H60      1.0000 0.42130  0.15080  0.00240  Biso   1.000  H
  C55      1.0000 0.44080  0.24060  0.97780  Biso   1.000  C
  H61      1.0000 0.38970  0.24740  0.97550  Biso   1.000  H
  H62      1.0000 0.47200  0.26520  0.01110  Biso   1.000  H
  C56      1.0000 0.45150  0.26310  0.91880  Biso   1.000  C
  H63      1.0000 0.41020  0.24890  0.88490  Biso   1.000  H
  H64      1.0000 0.45150  0.30840  0.91820  Biso   1.000  H
  C57      1.0000 0.53850  0.43380  0.89710  Biso   1.000  C
  H65      1.0000 0.49800  0.40690  0.89810  Biso   1.000  H
  H66      1.0000 0.55430  0.45770  0.93430  Biso   1.000  H
  C58      1.0000 0.51180  0.47820  0.84340  Biso   1.000  C
  H67      1.0000 0.47460  0.50590  0.84950  Biso   1.000  H
  H68      1.0000 0.48860  0.45400  0.80720  Biso   1.000  H
  C59      1.0000 0.57450  0.51780  0.83390  Biso   1.000  C
  H69      1.0000 0.57730  0.50960  0.79390  Biso   1.000  H
  H70      1.0000 0.56280  0.56170  0.83580  Biso   1.000  H
  C60      1.0000 0.64980  0.50430  0.88080  Biso   1.000  C
  H71      1.0000 0.68790  0.52760  0.87090  Biso   1.000  H
  H72      1.0000 0.64940  0.51800  0.92020  Biso   1.000  H
  N1       1.0000 0.79479  0.41608  0.81492  Biso   1.000  N
  N2       1.0000 0.89750  0.37956  0.80191  Biso   1.000  N
  N3       1.0000 0.85460  0.42519  0.92422  Biso   1.000  N
  N4       1.0000 0.94790  0.37106  0.91059  Biso   1.000  N
  N5       1.0000 0.96240  0.28542  0.78888  Biso   1.000  N
  N6       1.0000 0.95303  0.18205  0.78470  Biso   1.000  N
  N7       1.0000 0.01070  0.27454  0.89822  Biso   1.000  N
  N8       1.0000 0.01909  0.17093  0.89227  Biso   1.000  N
  N9       1.0000 0.89294  0.08296  0.79164  Biso   1.000  N
  N10      1.0000 0.80206  0.02553  0.80443  Biso   1.000  N
  N11      1.0000 0.96592  0.06713  0.89614  Biso   1.000  N
  N12      1.0000 0.87566  0.00850  0.90953  Biso   1.000  N
  N13      1.0000 0.68389  0.01386  0.82158  Biso   1.000  N
  N14      1.0000 0.58585  0.05166  0.84162  Biso   1.000  N
  N15      1.0000 0.75649  0.00698  0.92745  Biso   1.000  N
  N16      1.0000 0.66560  0.05971  0.94638  Biso   1.000  N
  N17      1.0000 0.52541  0.14878  0.85420  Biso   1.000  N
  N18      1.0000 0.53010  0.25273  0.85206  Biso   1.000  N
  N19      1.0000 0.60255  0.15586  0.95959  Biso   1.000  N
  N20      1.0000 0.58838  0.25897  0.96103  Biso   1.000  N
  N21      1.0000 0.58119  0.35392  0.83889  Biso   1.000  N
  N22      1.0000 0.67145  0.41124  0.82537  Biso   1.000  N
  N23      1.0000 0.64052  0.35946  0.94761  Biso   1.000  N
  N24      1.0000 0.73121  0.41646  0.93410  Biso   1.000  N
  O1       1.0000 0.78451  0.35388  0.73216  Biso   1.000  O
  O2       1.0000 0.86493  0.24066  0.71559  Biso   1.000  O
  O3       1.0000 0.77188  0.10520  0.73540  Biso   1.000  O
  O4       1.0000 0.60076  0.07509  0.75033  Biso   1.000  O
  O5       1.0000 0.51810  0.19715  0.76470  Biso   1.000  O
  O6       1.0000 0.61150  0.33958  0.75222  Biso   1.000  O
  O7       1.0000 0.91981  0.35651  0.99850  Biso   1.000  O
  O8       1.0000 0.00910  0.21362  0.97930  Biso   1.000  O
  O9       1.0000 0.95045  0.06546  0.98996  Biso   1.000  O
  O10      1.0000 0.78605  0.07487  0.00819  Biso   1.000  O
  O11      1.0000 0.68788  0.21351  0.03422  Biso   1.000  O
  O12      1.0000 0.75644  0.35522  0.01887  Biso   1.000  O
  Pr2      1.0000 0.74552  0.22154  0.14510  Biso   1.000  Pr
  C61      1.0000 0.82250  0.11950  0.27951  Biso   1.000  C
  C62      1.0000 0.85440  0.05446  0.36468  Biso   1.000  C
  C63      1.0000 0.92580  0.08690  0.35835  Biso   1.000  C
  C64      1.0000 0.90800  0.11860  0.44896  Biso   1.000  C
  C65      1.0000 0.94310  0.15070  0.27077  Biso   1.000  C
  H73      1.0000 0.91680  0.14980  0.22770  Biso   1.000  H
  H74      1.0000 0.98830  0.12680  0.27800  Biso   1.000  H
  C66      1.0000 0.01580  0.16590  0.42931  Biso   1.000  C
  H75      1.0000 0.05520  0.14150  0.42250  Biso   1.000  H
  H76      1.0000 0.02950  0.17370  0.47230  Biso   1.000  H
  C67      1.0000 0.92100  0.26390  0.25927  Biso   1.000  C
  C68      1.0000 0.02460  0.23420  0.34078  Biso   1.000  C
  C69      1.0000 0.02310  0.30730  0.33356  Biso   1.000  C
  C70      1.0000 0.01220  0.28110  0.42770  Biso   1.000  C
  C71      1.0000 0.92630  0.37820  0.25688  Biso   1.000  C
  H77      1.0000 0.89010  0.37090  0.21750  Biso   1.000  H
  H78      1.0000 0.96750  0.40070  0.25090  Biso   1.000  H
  C72      1.0000 0.03140  0.39360  0.41375  Biso   1.000  C
  H79      1.0000 0.06830  0.41220  0.39870  Biso   1.000  H
  H80      1.0000 0.05160  0.39310  0.45750  Biso   1.000  H
  C73      1.0000 0.81800  0.42540  0.27366  Biso   1.000  C
  C74      1.0000 0.93300  0.46180  0.33695  Biso   1.000  C
  C75      1.0000 0.86850  0.50330  0.34614  Biso   1.000  C
  C76      1.0000 0.93180  0.45104  0.43718  Biso   1.000  C
  C77      1.0000 0.72910  0.50250  0.28474  Biso   1.000  C
  H81      1.0000 0.70360  0.48970  0.24350  Biso   1.000  H
  H82      1.0000 0.73450  0.54750  0.28490  Biso   1.000  H
  C78      1.0000 0.82990  0.51911  0.44165  Biso   1.000  C
  H83      1.0000 0.82530  0.56350  0.43290  Biso   1.000  H
  H84      1.0000 0.85500  0.51450  0.48460  Biso   1.000  H
  C79      1.0000 0.62210  0.45010  0.29934  Biso   1.000  C
  C80      1.0000 0.69070  0.51417  0.37996  Biso   1.000  C
  C81      1.0000 0.62560  0.48214  0.39693  Biso   1.000  C
  C82      1.0000 0.73990  0.44984  0.46438  Biso   1.000  C
  C83      1.0000 0.51710  0.41461  0.33057  Biso   1.000  C
  H85      1.0000 0.48570  0.43770  0.34840  Biso   1.000  H
  H86      1.0000 0.49200  0.41300  0.28740  Biso   1.000  H
  C84      1.0000 0.63140  0.40522  0.48350  Biso   1.000  C
  H87      1.0000 0.66770  0.39950  0.52320  Biso   1.000  H
  H88      1.0000 0.59110  0.42980  0.48850  Biso   1.000  H
  C85      1.0000 0.52450  0.30090  0.31813  Biso   1.000  C
  C86      1.0000 0.52910  0.33372  0.41506  Biso   1.000  C
  C87      1.0000 0.52360  0.26075  0.41173  Biso   1.000  C
  C88      1.0000 0.63160  0.29045  0.48876  Biso   1.000  C
  C89      1.0000 0.51690  0.18673  0.32273  Biso   1.000  C
  H89      1.0000 0.47740  0.16600  0.33300  Biso   1.000  H
  H90      1.0000 0.50010  0.19300  0.27940  Biso   1.000  H
  C90      1.0000 0.60390  0.17705  0.48183  Biso   1.000  C
  H91      1.0000 0.55760  0.15680  0.47960  Biso   1.000  H
  H92      1.0000 0.63480  0.17750  0.52390  Biso   1.000  H
  C91      1.0000 0.62120  0.13450  0.30155  Biso   1.000  C
  C92      1.0000 0.60290  0.10605  0.39257  Biso   1.000  C
  C93      1.0000 0.66760  0.06510  0.38310  Biso   1.000  C
  C94      1.0000 0.71260  0.12487  0.47094  Biso   1.000  C
  C95      1.0000 0.71830  0.06240  0.29334  Biso   1.000  C
  H93      1.0000 0.69730  0.07280  0.25090  Biso   1.000  H
  H94      1.0000 0.71800  0.01730  0.29680  Biso   1.000  H
  C96      1.0000 0.80310  0.05290  0.45365  Biso   1.000  C
  H95      1.0000 0.79560  0.00840  0.44640  Biso   1.000  H
  H96      1.0000 0.82530  0.05880  0.49680  Biso   1.000  H
  C97      1.0000 0.85670  0.98340  0.35890  Biso   1.000  C
  H97      1.0000 0.81340  0.96540  0.36560  Biso   1.000  H
  H98      1.0000 0.85520  0.97270  0.31830  Biso   1.000  H
  C98      1.0000 0.92750  0.95530  0.40470  Biso   1.000  C
  H99      1.0000 0.93410  0.91310  0.39230  Biso   1.000  H
  H100     1.0000 0.92070  0.95280  0.44400  Biso   1.000  H
  C99      1.0000 0.99670  0.99260  0.41070  Biso   1.000  C
  H101     1.0000 0.01100  0.01520  0.44860  Biso   1.000  H
  H102     1.0000 0.03660  0.96410  0.41170  Biso   1.000  H
  C100     1.0000 0.98650  0.03920  0.35870  Biso   1.000  C
  H103     1.0000 0.03280  0.06090  0.36370  Biso   1.000  H
  H104     1.0000 0.97260  0.01710  0.32050  Biso   1.000  H
  C101     1.0000 0.09790  0.20660  0.34000  Biso   1.000  C
  H105     1.0000 0.13730  0.22080  0.37530  Biso   1.000  H
  H106     1.0000 0.09550  0.16140  0.34200  Biso   1.000  H
  C102     1.0000 0.11600  0.22530  0.28260  Biso   1.000  C
  H107     1.0000 0.08600  0.20040  0.24900  Biso   1.000  H
  H108     1.0000 0.16760  0.21590  0.28850  Biso   1.000  H
  C103     1.0000 0.10220  0.29400  0.26700  Biso   1.000  C
  H109     1.0000 0.14430  0.31110  0.25770  Biso   1.000  H
  H110     1.0000 0.05900  0.29800  0.23130  Biso   1.000  H
  C104     1.0000 0.08990  0.33160  0.31830  Biso   1.000  C
  H111     1.0000 0.08210  0.37510  0.30660  Biso   1.000  H
  H112     1.0000 0.13360  0.32890  0.35380  Biso   1.000  H
  C105     1.0000 0.98830  0.50130  0.31820  Biso   1.000  C
  H113     1.0000 0.03020  0.47560  0.31820  Biso   1.000  H
  H114     1.0000 0.96500  0.51680  0.27750  Biso   1.000  H
  C106     1.0000 0.01540  0.55640  0.36150  Biso   1.000  C
  H115     1.0000 0.04420  0.54040  0.40090  Biso   1.000  H
  H116     1.0000 0.04800  0.58210  0.34700  Biso   1.000  H
  C107     1.0000 0.95260  0.59730  0.36840  Biso   1.000  C
  H117     1.0000 0.95750  0.63920  0.35430  Biso   1.000  H
  H118     1.0000 0.95710  0.60010  0.41080  Biso   1.000  H
  C108     1.0000 0.87640  0.57197  0.33330  Biso   1.000  C
  H119     1.0000 0.86770  0.57750  0.29040  Biso   1.000  H
  H120     1.0000 0.83900  0.59570  0.34390  Biso   1.000  H
  C109     1.0000 0.68230  0.58510  0.37650  Biso   1.000  C
  H121     1.0000 0.69370  0.60200  0.41700  Biso   1.000  H
  H122     1.0000 0.71710  0.60260  0.35860  Biso   1.000  H
  C110     1.0000 0.60360  0.60380  0.33900  Biso   1.000  C
  H123     1.0000 0.60010  0.64900  0.33690  Biso   1.000  H
  H124     1.0000 0.59300  0.58810  0.29820  Biso   1.000  H
  C111     1.0000 0.54540  0.57810  0.36570  Biso   1.000  C
  H125     1.0000 0.50510  0.55940  0.33360  Biso   1.000  H
  H126     1.0000 0.52510  0.61240  0.38240  Biso   1.000  H
  C112     1.0000 0.57740  0.52940  0.41510  Biso   1.000  C
  H127     1.0000 0.53710  0.50770  0.42350  Biso   1.000  H
  H128     1.0000 0.60670  0.55030  0.45180  Biso   1.000  H
  C113     1.0000 0.46740  0.36270  0.43510  Biso   1.000  C
  H129     1.0000 0.42080  0.36020  0.40220  Biso   1.000  H
  H130     1.0000 0.47830  0.40650  0.44460  Biso   1.000  H
  C114     1.0000 0.45990  0.32920  0.49020  Biso   1.000  C
  H131     1.0000 0.50600  0.33300  0.52330  Biso   1.000  H
  H132     1.0000 0.42130  0.34920  0.50240  Biso   1.000  H
  C115     1.0000 0.44080  0.25940  0.47780  Biso   1.000  C
  H133     1.0000 0.38970  0.25260  0.47550  Biso   1.000  H
  H134     1.0000 0.47200  0.23480  0.51110  Biso   1.000  H
  C116     1.0000 0.45150  0.23690  0.41880  Biso   1.000  C
  H135     1.0000 0.41020  0.25110  0.38490  Biso   1.000  H
  H136     1.0000 0.45150  0.19160  0.41820  Biso   1.000  H
  C117     1.0000 0.53850  0.06620  0.39710  Biso   1.000  C
  H137     1.0000 0.49800  0.09310  0.39810  Biso   1.000  H
  H138     1.0000 0.55430  0.04230  0.43430  Biso   1.000  H
  C118     1.0000 0.51180  0.02180  0.34340  Biso   1.000  C
  H139     1.0000 0.47460  0.99410  0.34950  Biso   1.000  H
  H140     1.0000 0.48860  0.04600  0.30720  Biso   1.000  H
  C119     1.0000 0.57450  0.98220  0.33390  Biso   1.000  C
  H141     1.0000 0.57730  0.99040  0.29390  Biso   1.000  H
  H142     1.0000 0.56280  0.93830  0.33580  Biso   1.000  H
  C120     1.0000 0.64980  0.99570  0.38080  Biso   1.000  C
  H143     1.0000 0.68790  0.97240  0.37090  Biso   1.000  H
  H144     1.0000 0.64940  0.98200  0.42020  Biso   1.000  H
  N25      1.0000 0.79479  0.08392  0.31492  Biso   1.000  N
  N26      1.0000 0.89750  0.12044  0.30191  Biso   1.000  N
  N27      1.0000 0.85460  0.07481  0.42422  Biso   1.000  N
  N28      1.0000 0.94790  0.12894  0.41059  Biso   1.000  N
  N29      1.0000 0.96240  0.21458  0.28888  Biso   1.000  N
  N30      1.0000 0.95303  0.31795  0.28470  Biso   1.000  N
  N31      1.0000 0.01070  0.22546  0.39822  Biso   1.000  N
  N32      1.0000 0.01909  0.32907  0.39227  Biso   1.000  N
  N33      1.0000 0.89294  0.41704  0.29164  Biso   1.000  N
  N34      1.0000 0.80206  0.47447  0.30443  Biso   1.000  N
  N35      1.0000 0.96592  0.43287  0.39614  Biso   1.000  N
  N36      1.0000 0.87566  0.49150  0.40953  Biso   1.000  N
  N37      1.0000 0.68389  0.48614  0.32158  Biso   1.000  N
  N38      1.0000 0.58585  0.44834  0.34162  Biso   1.000  N
  N39      1.0000 0.75649  0.49302  0.42745  Biso   1.000  N
  N40      1.0000 0.66560  0.44029  0.44638  Biso   1.000  N
  N41      1.0000 0.52541  0.35122  0.35420  Biso   1.000  N
  N42      1.0000 0.53010  0.24727  0.35206  Biso   1.000  N
  N43      1.0000 0.60255  0.34414  0.45959  Biso   1.000  N
  N44      1.0000 0.58838  0.24103  0.46103  Biso   1.000  N
  N45      1.0000 0.58119  0.14608  0.33889  Biso   1.000  N
  N46      1.0000 0.67145  0.08876  0.32537  Biso   1.000  N
  N47      1.0000 0.64052  0.14054  0.44761  Biso   1.000  N
  N48      1.0000 0.73121  0.08354  0.43410  Biso   1.000  N
  O13      1.0000 0.78451  0.14612  0.23216  Biso   1.000  O
  O14      1.0000 0.86493  0.25934  0.21559  Biso   1.000  O
  O15      1.0000 0.77188  0.39480  0.23540  Biso   1.000  O
  O16      1.0000 0.60076  0.42491  0.25033  Biso   1.000  O
  O17      1.0000 0.51810  0.30285  0.26470  Biso   1.000  O
  O18      1.0000 0.61150  0.16042  0.25222  Biso   1.000  O
  O19      1.0000 0.91981  0.14349  0.49850  Biso   1.000  O
  O20      1.0000 0.00910  0.28638  0.47930  Biso   1.000  O
  O21      1.0000 0.95045  0.43454  0.48996  Biso   1.000  O
  O22      1.0000 0.78605  0.42513  0.50819  Biso   1.000  O
  O23      1.0000 0.68788  0.28649  0.53422  Biso   1.000  O
  O24      1.0000 0.75644  0.14478  0.51887  Biso   1.000  O
  Pr3      1.0000 0.25448  0.77846  0.85490  Biso   1.000  Pr
  C121     1.0000 0.17750  0.88050  0.72049  Biso   1.000  C
  C122     1.0000 0.14560  0.94554  0.63532  Biso   1.000  C
  C123     1.0000 0.07420  0.91310  0.64165  Biso   1.000  C
  C124     1.0000 0.09200  0.88140  0.55104  Biso   1.000  C
  C125     1.0000 0.05690  0.84930  0.72923  Biso   1.000  C
  H145     1.0000 0.08320  0.85020  0.77230  Biso   1.000  H
  H146     1.0000 0.01170  0.87320  0.72200  Biso   1.000  H
  C126     1.0000 0.98420  0.83410  0.57069  Biso   1.000  C
  H147     1.0000 0.94480  0.85850  0.57750  Biso   1.000  H
  H148     1.0000 0.97050  0.82630  0.52770  Biso   1.000  H
  C127     1.0000 0.07900  0.73610  0.74073  Biso   1.000  C
  C128     1.0000 0.97540  0.76580  0.65922  Biso   1.000  C
  C129     1.0000 0.97690  0.69270  0.66644  Biso   1.000  C
  C130     1.0000 0.98780  0.71890  0.57230  Biso   1.000  C
  C131     1.0000 0.07370  0.62180  0.74312  Biso   1.000  C
  H149     1.0000 0.10990  0.62910  0.78250  Biso   1.000  H
  H150     1.0000 0.03250  0.59930  0.74910  Biso   1.000  H
  C132     1.0000 0.96860  0.60640  0.58625  Biso   1.000  C
  H151     1.0000 0.93170  0.58780  0.60130  Biso   1.000  H
  H152     1.0000 0.94840  0.60690  0.54250  Biso   1.000  H
  C133     1.0000 0.18200  0.57460  0.72634  Biso   1.000  C
  C134     1.0000 0.06700  0.53820  0.66305  Biso   1.000  C
  C135     1.0000 0.13150  0.49670  0.65386  Biso   1.000  C
  C136     1.0000 0.06820  0.54896  0.56282  Biso   1.000  C
  C137     1.0000 0.27090  0.49750  0.71526  Biso   1.000  C
  H153     1.0000 0.29640  0.51030  0.75650  Biso   1.000  H
  H154     1.0000 0.26550  0.45250  0.71510  Biso   1.000  H
  C138     1.0000 0.17010  0.48089  0.55835  Biso   1.000  C
  H155     1.0000 0.17470  0.43650  0.56710  Biso   1.000  H
  H156     1.0000 0.14500  0.48550  0.51540  Biso   1.000  H
  C139     1.0000 0.37790  0.54990  0.70066  Biso   1.000  C
  C140     1.0000 0.30930  0.48583  0.62004  Biso   1.000  C
  C141     1.0000 0.37440  0.51786  0.60307  Biso   1.000  C
  C142     1.0000 0.26010  0.55016  0.53562  Biso   1.000  C
  C143     1.0000 0.48290  0.58539  0.66943  Biso   1.000  C
  H157     1.0000 0.51430  0.56230  0.65160  Biso   1.000  H
  H158     1.0000 0.50800  0.58700  0.71260  Biso   1.000  H
  C144     1.0000 0.36860  0.59478  0.51650  Biso   1.000  C
  H159     1.0000 0.33230  0.60050  0.47680  Biso   1.000  H
  H160     1.0000 0.40890  0.57020  0.51150  Biso   1.000  H
  C145     1.0000 0.47550  0.69910  0.68187  Biso   1.000  C
  C146     1.0000 0.47090  0.66628  0.58494  Biso   1.000  C
  C147     1.0000 0.47640  0.73925  0.58827  Biso   1.000  C
  C148     1.0000 0.36840  0.70955  0.51124  Biso   1.000  C
  C149     1.0000 0.48310  0.81327  0.67727  Biso   1.000  C
  H161     1.0000 0.52260  0.83400  0.66700  Biso   1.000  H
  H162     1.0000 0.49990  0.80700  0.72060  Biso   1.000  H
  C150     1.0000 0.39610  0.82295  0.51817  Biso   1.000  C
  H163     1.0000 0.44240  0.84320  0.52040  Biso   1.000  H
  H164     1.0000 0.36520  0.82250  0.47610  Biso   1.000  H
  C151     1.0000 0.37880  0.86550  0.69845  Biso   1.000  C
  C152     1.0000 0.39710  0.89395  0.60743  Biso   1.000  C
  C153     1.0000 0.33240  0.93490  0.61690  Biso   1.000  C
  C154     1.0000 0.28740  0.87513  0.52906  Biso   1.000  C
  C155     1.0000 0.28170  0.93760  0.70666  Biso   1.000  C
  H165     1.0000 0.30270  0.92720  0.74910  Biso   1.000  H
  H166     1.0000 0.28200  0.98270  0.70320  Biso   1.000  H
  C156     1.0000 0.19690  0.94710  0.54635  Biso   1.000  C
  H167     1.0000 0.20440  0.99160  0.55360  Biso   1.000  H
  H168     1.0000 0.17470  0.94120  0.50320  Biso   1.000  H
  C157     1.0000 0.14330  0.01660  0.64110  Biso   1.000  C
  H169     1.0000 0.18660  0.03460  0.63440  Biso   1.000  H
  H170     1.0000 0.14480  0.02730  0.68170  Biso   1.000  H
  C158     1.0000 0.07250  0.04470  0.59530  Biso   1.000  C
  H171     1.0000 0.06590  0.08690  0.60770  Biso   1.000  H
  H172     1.0000 0.07930  0.04720  0.55600  Biso   1.000  H
  C159     1.0000 0.00330  0.00740  0.58930  Biso   1.000  C
  H173     1.0000 0.98900  0.98480  0.55140  Biso   1.000  H
  H174     1.0000 0.96340  0.03590  0.58830  Biso   1.000  H
  C160     1.0000 0.01350  0.96080  0.64130  Biso   1.000  C
  H175     1.0000 0.96720  0.93910  0.63630  Biso   1.000  H
  H176     1.0000 0.02740  0.98290  0.67950  Biso   1.000  H
  C161     1.0000 0.90210  0.79340  0.66000  Biso   1.000  C
  H177     1.0000 0.86270  0.77920  0.62470  Biso   1.000  H
  H178     1.0000 0.90450  0.83860  0.65800  Biso   1.000  H
  C162     1.0000 0.88400  0.77470  0.71740  Biso   1.000  C
  H179     1.0000 0.91400  0.79960  0.75100  Biso   1.000  H
  H180     1.0000 0.83240  0.78410  0.71150  Biso   1.000  H
  C163     1.0000 0.89780  0.70600  0.73300  Biso   1.000  C
  H181     1.0000 0.85570  0.68890  0.74230  Biso   1.000  H
  H182     1.0000 0.94100  0.70200  0.76870  Biso   1.000  H
  C164     1.0000 0.91010  0.66840  0.68170  Biso   1.000  C
  H183     1.0000 0.91790  0.62490  0.69340  Biso   1.000  H
  H184     1.0000 0.86640  0.67110  0.64620  Biso   1.000  H
  C165     1.0000 0.01170  0.49870  0.68180  Biso   1.000  C
  H185     1.0000 0.96980  0.52440  0.68180  Biso   1.000  H
  H186     1.0000 0.03500  0.48320  0.72250  Biso   1.000  H
  C166     1.0000 0.98460  0.44360  0.63850  Biso   1.000  C
  H187     1.0000 0.95580  0.45960  0.59910  Biso   1.000  H
  H188     1.0000 0.95200  0.41790  0.65300  Biso   1.000  H
  C167     1.0000 0.04740  0.40270  0.63160  Biso   1.000  C
  H189     1.0000 0.04250  0.36080  0.64570  Biso   1.000  H
  H190     1.0000 0.04290  0.39990  0.58920  Biso   1.000  H
  C168     1.0000 0.12360  0.42803  0.66670  Biso   1.000  C
  H191     1.0000 0.13230  0.42250  0.70960  Biso   1.000  H
  H192     1.0000 0.16100  0.40430  0.65610  Biso   1.000  H
  C169     1.0000 0.31770  0.41490  0.62350  Biso   1.000  C
  H193     1.0000 0.30630  0.39800  0.58300  Biso   1.000  H
  H194     1.0000 0.28290  0.39740  0.64140  Biso   1.000  H
  C170     1.0000 0.39640  0.39620  0.66100  Biso   1.000  C
  H195     1.0000 0.39990  0.35100  0.66310  Biso   1.000  H
  H196     1.0000 0.40700  0.41190  0.70180  Biso   1.000  H
  C171     1.0000 0.45460  0.42190  0.63430  Biso   1.000  C
  H197     1.0000 0.49490  0.44060  0.66640  Biso   1.000  H
  H198     1.0000 0.47490  0.38760  0.61760  Biso   1.000  H
  C172     1.0000 0.42260  0.47060  0.58490  Biso   1.000  C
  H199     1.0000 0.46290  0.49230  0.57650  Biso   1.000  H
  H200     1.0000 0.39330  0.44970  0.54820  Biso   1.000  H
  C173     1.0000 0.53260  0.63730  0.56490  Biso   1.000  C
  H201     1.0000 0.57920  0.63980  0.59780  Biso   1.000  H
  H202     1.0000 0.52170  0.59350  0.55540  Biso   1.000  H
  C174     1.0000 0.54010  0.67080  0.50980  Biso   1.000  C
  H203     1.0000 0.49400  0.66700  0.47670  Biso   1.000  H
  H204     1.0000 0.57870  0.65080  0.49760  Biso   1.000  H
  C175     1.0000 0.55920  0.74060  0.52220  Biso   1.000  C
  H205     1.0000 0.61030  0.74740  0.52450  Biso   1.000  H
  H206     1.0000 0.52800  0.76520  0.48890  Biso   1.000  H
  C176     1.0000 0.54850  0.76310  0.58120  Biso   1.000  C
  H207     1.0000 0.58980  0.74890  0.61510  Biso   1.000  H
  H208     1.0000 0.54850  0.80840  0.58180  Biso   1.000  H
  C177     1.0000 0.46150  0.93380  0.60290  Biso   1.000  C
  H209     1.0000 0.50200  0.90690  0.60190  Biso   1.000  H
  H210     1.0000 0.44570  0.95770  0.56570  Biso   1.000  H
  C178     1.0000 0.48820  0.97820  0.65660  Biso   1.000  C
  H211     1.0000 0.52540  0.00590  0.65050  Biso   1.000  H
  H212     1.0000 0.51140  0.95400  0.69280  Biso   1.000  H
  C179     1.0000 0.42550  0.01780  0.66610  Biso   1.000  C
  H213     1.0000 0.42270  0.00960  0.70610  Biso   1.000  H
  H214     1.0000 0.43720  0.06170  0.66420  Biso   1.000  H
  C180     1.0000 0.35020  0.00430  0.61920  Biso   1.000  C
  H215     1.0000 0.31210  0.02760  0.62910  Biso   1.000  H
  H216     1.0000 0.35060  0.01800  0.57980  Biso   1.000  H
  N49      1.0000 0.20521  0.91608  0.68508  Biso   1.000  N
  N50      1.0000 0.10250  0.87956  0.69809  Biso   1.000  N
  N51      1.0000 0.14540  0.92519  0.57578  Biso   1.000  N
  N52      1.0000 0.05210  0.87106  0.58941  Biso   1.000  N
  N53      1.0000 0.03760  0.78542  0.71112  Biso   1.000  N
  N54      1.0000 0.04697  0.68205  0.71530  Biso   1.000  N
  N55      1.0000 0.98930  0.77454  0.60178  Biso   1.000  N
  N56      1.0000 0.98091  0.67093  0.60773  Biso   1.000  N
  N57      1.0000 0.10706  0.58296  0.70836  Biso   1.000  N
  N58      1.0000 0.19794  0.52553  0.69557  Biso   1.000  N
  N59      1.0000 0.03408  0.56713  0.60386  Biso   1.000  N
  N60      1.0000 0.12434  0.50850  0.59047  Biso   1.000  N
  N61      1.0000 0.31611  0.51386  0.67842  Biso   1.000  N
  N62      1.0000 0.41415  0.55166  0.65838  Biso   1.000  N
  N63      1.0000 0.24351  0.50698  0.57255  Biso   1.000  N
  N64      1.0000 0.33440  0.55971  0.55362  Biso   1.000  N
  N65      1.0000 0.47459  0.64878  0.64580  Biso   1.000  N
  N66      1.0000 0.46990  0.75273  0.64794  Biso   1.000  N
  N67      1.0000 0.39745  0.65586  0.54041  Biso   1.000  N
  N68      1.0000 0.41162  0.75897  0.53897  Biso   1.000  N
  N69      1.0000 0.41881  0.85392  0.66111  Biso   1.000  N
  N70      1.0000 0.32855  0.91124  0.67463  Biso   1.000  N
  N71      1.0000 0.35948  0.85946  0.55239  Biso   1.000  N
  N72      1.0000 0.26879  0.91646  0.56590  Biso   1.000  N
  O25      1.0000 0.21549  0.85388  0.76784  Biso   1.000  O
  O26      1.0000 0.13507  0.74066  0.78441  Biso   1.000  O
  O27      1.0000 0.22812  0.60520  0.76460  Biso   1.000  O
  O28      1.0000 0.39924  0.57509  0.74967  Biso   1.000  O
  O29      1.0000 0.48190  0.69715  0.73530  Biso   1.000  O
  O30      1.0000 0.38850  0.83958  0.74778  Biso   1.000  O
  O31      1.0000 0.08019  0.85651  0.50150  Biso   1.000  O
  O32      1.0000 0.99090  0.71362  0.52070  Biso   1.000  O
  O33      1.0000 0.04955  0.56546  0.51004  Biso   1.000  O
  O34      1.0000 0.21395  0.57487  0.49181  Biso   1.000  O
  O35      1.0000 0.31212  0.71351  0.46578  Biso   1.000  O
  O36      1.0000 0.24356  0.85522  0.48113  Biso   1.000  O
  Pr4      1.0000 0.25448  0.72154  0.35490  Biso   1.000  Pr
  C181     1.0000 0.17750  0.61950  0.22049  Biso   1.000  C
  C182     1.0000 0.14560  0.55446  0.13532  Biso   1.000  C
  C183     1.0000 0.07420  0.58690  0.14165  Biso   1.000  C
  C184     1.0000 0.09200  0.61860  0.05104  Biso   1.000  C
  C185     1.0000 0.05690  0.65070  0.22923  Biso   1.000  C
  H217     1.0000 0.08320  0.64980  0.27230  Biso   1.000  H
  H218     1.0000 0.01170  0.62680  0.22200  Biso   1.000  H
  C186     1.0000 0.98420  0.66590  0.07069  Biso   1.000  C
  H219     1.0000 0.94480  0.64150  0.07750  Biso   1.000  H
  H220     1.0000 0.97050  0.67370  0.02770  Biso   1.000  H
  C187     1.0000 0.07900  0.76390  0.24073  Biso   1.000  C
  C188     1.0000 0.97540  0.73420  0.15922  Biso   1.000  C
  C189     1.0000 0.97690  0.80730  0.16644  Biso   1.000  C
  C190     1.0000 0.98780  0.78110  0.07230  Biso   1.000  C
  C191     1.0000 0.07370  0.87820  0.24312  Biso   1.000  C
  H221     1.0000 0.10990  0.87090  0.28250  Biso   1.000  H
  H222     1.0000 0.03250  0.90070  0.24910  Biso   1.000  H
  C192     1.0000 0.96860  0.89360  0.08625  Biso   1.000  C
  H223     1.0000 0.93170  0.91220  0.10130  Biso   1.000  H
  H224     1.0000 0.94840  0.89310  0.04250  Biso   1.000  H
  C193     1.0000 0.18200  0.92540  0.22634  Biso   1.000  C
  C194     1.0000 0.06700  0.96180  0.16305  Biso   1.000  C
  C195     1.0000 0.13150  0.00330  0.15386  Biso   1.000  C
  C196     1.0000 0.06820  0.95104  0.06282  Biso   1.000  C
  C197     1.0000 0.27090  0.00250  0.21526  Biso   1.000  C
  H225     1.0000 0.29640  0.98970  0.25650  Biso   1.000  H
  H226     1.0000 0.26550  0.04750  0.21510  Biso   1.000  H
  C198     1.0000 0.17010  0.01911  0.05835  Biso   1.000  C
  H227     1.0000 0.17470  0.06350  0.06710  Biso   1.000  H
  H228     1.0000 0.14500  0.01450  0.01540  Biso   1.000  H
  C199     1.0000 0.37790  0.95010  0.20066  Biso   1.000  C
  C200     1.0000 0.30930  0.01417  0.12004  Biso   1.000  C
  C201     1.0000 0.37440  0.98214  0.10307  Biso   1.000  C
  C202     1.0000 0.26010  0.94984  0.03562  Biso   1.000  C
  C203     1.0000 0.48290  0.91461  0.16943  Biso   1.000  C
  H229     1.0000 0.51430  0.93770  0.15160  Biso   1.000  H
  H230     1.0000 0.50800  0.91300  0.21260  Biso   1.000  H
  C204     1.0000 0.36860  0.90522  0.01650  Biso   1.000  C
  H231     1.0000 0.33230  0.89950  0.97680  Biso   1.000  H
  H232     1.0000 0.40890  0.92980  0.01150  Biso   1.000  H
  C205     1.0000 0.47550  0.80090  0.18187  Biso   1.000  C
  C206     1.0000 0.47090  0.83372  0.08494  Biso   1.000  C
  C207     1.0000 0.47640  0.76075  0.08827  Biso   1.000  C
  C208     1.0000 0.36840  0.79045  0.01124  Biso   1.000  C
  C209     1.0000 0.48310  0.68673  0.17727  Biso   1.000  C
  H233     1.0000 0.52260  0.66600  0.16700  Biso   1.000  H
  H234     1.0000 0.49990  0.69300  0.22060  Biso   1.000  H
  C210     1.0000 0.39610  0.67705  0.01817  Biso   1.000  C
  H235     1.0000 0.44240  0.65680  0.02040  Biso   1.000  H
  H236     1.0000 0.36520  0.67750  0.97610  Biso   1.000  H
  C211     1.0000 0.37880  0.63450  0.19845  Biso   1.000  C
  C212     1.0000 0.39710  0.60605  0.10743  Biso   1.000  C
  C213     1.0000 0.33240  0.56510  0.11690  Biso   1.000  C
  C214     1.0000 0.28740  0.62487  0.02906  Biso   1.000  C
  C215     1.0000 0.28170  0.56240  0.20666  Biso   1.000  C
  H237     1.0000 0.30270  0.57280  0.24910  Biso   1.000  H
  H238     1.0000 0.28200  0.51730  0.20320  Biso   1.000  H
  C216     1.0000 0.19690  0.55290  0.04635  Biso   1.000  C
  H239     1.0000 0.20440  0.50840  0.05360  Biso   1.000  H
  H240     1.0000 0.17470  0.55880  0.00320  Biso   1.000  H
  C217     1.0000 0.14330  0.48340  0.14110  Biso   1.000  C
  H241     1.0000 0.18660  0.46540  0.13440  Biso   1.000  H
  H242     1.0000 0.14480  0.47270  0.18170  Biso   1.000  H
  C218     1.0000 0.07250  0.45530  0.09530  Biso   1.000  C
  H243     1.0000 0.06590  0.41310  0.10770  Biso   1.000  H
  H244     1.0000 0.07930  0.45280  0.05600  Biso   1.000  H
  C219     1.0000 0.00330  0.49260  0.08930  Biso   1.000  C
  H245     1.0000 0.98900  0.51520  0.05140  Biso   1.000  H
  H246     1.0000 0.96340  0.46410  0.08830  Biso   1.000  H
  C220     1.0000 0.01350  0.53920  0.14130  Biso   1.000  C
  H247     1.0000 0.96720  0.56090  0.13630  Biso   1.000  H
  H248     1.0000 0.02740  0.51710  0.17950  Biso   1.000  H
  C221     1.0000 0.90210  0.70660  0.16000  Biso   1.000  C
  H249     1.0000 0.86270  0.72080  0.12470  Biso   1.000  H
  H250     1.0000 0.90450  0.66140  0.15800  Biso   1.000  H
  C222     1.0000 0.88400  0.72530  0.21740  Biso   1.000  C
  H251     1.0000 0.91400  0.70040  0.25100  Biso   1.000  H
  H252     1.0000 0.83240  0.71590  0.21150  Biso   1.000  H
  C223     1.0000 0.89780  0.79400  0.23300  Biso   1.000  C
  H253     1.0000 0.85570  0.81110  0.24230  Biso   1.000  H
  H254     1.0000 0.94100  0.79800  0.26870  Biso   1.000  H
  C224     1.0000 0.91010  0.83160  0.18170  Biso   1.000  C
  H255     1.0000 0.91790  0.87510  0.19340  Biso   1.000  H
  H256     1.0000 0.86640  0.82890  0.14620  Biso   1.000  H
  C225     1.0000 0.01170  0.00130  0.18180  Biso   1.000  C
  H257     1.0000 0.96980  0.97560  0.18180  Biso   1.000  H
  H258     1.0000 0.03500  0.01680  0.22250  Biso   1.000  H
  C226     1.0000 0.98460  0.05640  0.13850  Biso   1.000  C
  H259     1.0000 0.95580  0.04040  0.09910  Biso   1.000  H
  H260     1.0000 0.95200  0.08210  0.15300  Biso   1.000  H
  C227     1.0000 0.04740  0.09730  0.13160  Biso   1.000  C
  H261     1.0000 0.04250  0.13920  0.14570  Biso   1.000  H
  H262     1.0000 0.04290  0.10010  0.08920  Biso   1.000  H
  C228     1.0000 0.12360  0.07197  0.16670  Biso   1.000  C
  H263     1.0000 0.13230  0.07750  0.20960  Biso   1.000  H
  H264     1.0000 0.16100  0.09570  0.15610  Biso   1.000  H
  C229     1.0000 0.31770  0.08510  0.12350  Biso   1.000  C
  H265     1.0000 0.30630  0.10200  0.08300  Biso   1.000  H
  H266     1.0000 0.28290  0.10260  0.14140  Biso   1.000  H
  C230     1.0000 0.39640  0.10380  0.16100  Biso   1.000  C
  H267     1.0000 0.39990  0.14900  0.16310  Biso   1.000  H
  H268     1.0000 0.40700  0.08810  0.20180  Biso   1.000  H
  C231     1.0000 0.45460  0.07810  0.13430  Biso   1.000  C
  H269     1.0000 0.49490  0.05940  0.16640  Biso   1.000  H
  H270     1.0000 0.47490  0.11240  0.11760  Biso   1.000  H
  C232     1.0000 0.42260  0.02940  0.08490  Biso   1.000  C
  H271     1.0000 0.46290  0.00770  0.07650  Biso   1.000  H
  H272     1.0000 0.39330  0.05030  0.04820  Biso   1.000  H
  C233     1.0000 0.53260  0.86270  0.06490  Biso   1.000  C
  H273     1.0000 0.57920  0.86020  0.09780  Biso   1.000  H
  H274     1.0000 0.52170  0.90650  0.05540  Biso   1.000  H
  C234     1.0000 0.54010  0.82920  0.00980  Biso   1.000  C
  H275     1.0000 0.49400  0.83300  0.97670  Biso   1.000  H
  H276     1.0000 0.57870  0.84920  0.99760  Biso   1.000  H
  C235     1.0000 0.55920  0.75940  0.02220  Biso   1.000  C
  H277     1.0000 0.61030  0.75260  0.02450  Biso   1.000  H
  H278     1.0000 0.52800  0.73480  0.98890  Biso   1.000  H
  C236     1.0000 0.54850  0.73690  0.08120  Biso   1.000  C
  H279     1.0000 0.58980  0.75110  0.11510  Biso   1.000  H
  H280     1.0000 0.54850  0.69160  0.08180  Biso   1.000  H
  C237     1.0000 0.46150  0.56620  0.10290  Biso   1.000  C
  H281     1.0000 0.50200  0.59310  0.10190  Biso   1.000  H
  H282     1.0000 0.44570  0.54230  0.06570  Biso   1.000  H
  C238     1.0000 0.48820  0.52180  0.15660  Biso   1.000  C
  H283     1.0000 0.52540  0.49410  0.15050  Biso   1.000  H
  H284     1.0000 0.51140  0.54600  0.19280  Biso   1.000  H
  C239     1.0000 0.42550  0.48220  0.16610  Biso   1.000  C
  H285     1.0000 0.42270  0.49040  0.20610  Biso   1.000  H
  H286     1.0000 0.43720  0.43830  0.16420  Biso   1.000  H
  C240     1.0000 0.35020  0.49570  0.11920  Biso   1.000  C
  H287     1.0000 0.31210  0.47240  0.12910  Biso   1.000  H
  H288     1.0000 0.35060  0.48200  0.07980  Biso   1.000  H
  N73      1.0000 0.20521  0.58392  0.18508  Biso   1.000  N
  N74      1.0000 0.10250  0.62044  0.19809  Biso   1.000  N
  N75      1.0000 0.14540  0.57481  0.07578  Biso   1.000  N
  N76      1.0000 0.05210  0.62894  0.08941  Biso   1.000  N
  N77      1.0000 0.03760  0.71458  0.21112  Biso   1.000  N
  N78      1.0000 0.04697  0.81795  0.21530  Biso   1.000  N
  N79      1.0000 0.98930  0.72546  0.10178  Biso   1.000  N
  N80      1.0000 0.98091  0.82907  0.10773  Biso   1.000  N
  N81      1.0000 0.10706  0.91704  0.20836  Biso   1.000  N
  N82      1.0000 0.19794  0.97447  0.19557  Biso   1.000  N
  N83      1.0000 0.03408  0.93287  0.10386  Biso   1.000  N
  N84      1.0000 0.12434  0.99150  0.09047  Biso   1.000  N
  N85      1.0000 0.31611  0.98614  0.17842  Biso   1.000  N
  N86      1.0000 0.41415  0.94834  0.15838  Biso   1.000  N
  N87      1.0000 0.24351  0.99302  0.07255  Biso   1.000  N
  N88      1.0000 0.33440  0.94029  0.05362  Biso   1.000  N
  N89      1.0000 0.47459  0.85122  0.14580  Biso   1.000  N
  N90      1.0000 0.46990  0.74727  0.14794  Biso   1.000  N
  N91      1.0000 0.39745  0.84414  0.04041  Biso   1.000  N
  N92      1.0000 0.41162  0.74103  0.03897  Biso   1.000  N
  N93      1.0000 0.41881  0.64608  0.16111  Biso   1.000  N
  N94      1.0000 0.32855  0.58876  0.17463  Biso   1.000  N
  N95      1.0000 0.35948  0.64054  0.05239  Biso   1.000  N
  N96      1.0000 0.26879  0.58354  0.06590  Biso   1.000  N
  O37      1.0000 0.21549  0.64612  0.26784  Biso   1.000  O
  O38      1.0000 0.13507  0.75934  0.28441  Biso   1.000  O
  O39      1.0000 0.22812  0.89480  0.26460  Biso   1.000  O
  O40      1.0000 0.39924  0.92491  0.24967  Biso   1.000  O
  O41      1.0000 0.48190  0.80285  0.23530  Biso   1.000  O
  O42      1.0000 0.38850  0.66042  0.24778  Biso   1.000  O
  O43      1.0000 0.08019  0.64349  0.00150  Biso   1.000  O
  O44      1.0000 0.99090  0.78638  0.02070  Biso   1.000  O
  O45      1.0000 0.04955  0.93454  0.01004  Biso   1.000  O
  O46      1.0000 0.21395  0.92513  0.99181  Biso   1.000  O
  O47      1.0000 0.31212  0.78649  0.96578  Biso   1.000  O
  O48      1.0000 0.24356  0.64478  0.98113  Biso   1.000  O
