data_image0
_cell_length_a       19.0075
_cell_length_b       21.366
_cell_length_c       23.337
_cell_angle_alpha    90
_cell_angle_beta     108.588
_cell_angle_gamma    90

_symmetry_space_group_name_H-M    "P 1"
_symmetry_int_tables_number       1

loop_
  _symmetry_equiv_pos_as_xyz
  'x, y, z'

loop_
  _atom_site_label
  _atom_site_occupancy
  _atom_site_fract_x
  _atom_site_fract_y
  _atom_site_fract_z
  _atom_site_thermal_displace_type
  _atom_site_B_iso_or_equiv
  _atom_site_type_symbol
  Ce1      1.0000 0.24433  0.22276  0.14510  Biso   1.000  Ce
  C1       1.0000 0.13090  0.20970  0.98790  Biso   1.000  C
  C2       1.0000 0.02330  0.23940  0.91110  Biso   1.000  C
  C3       1.0000 0.02930  0.16600  0.91480  Biso   1.000  C
  C4       1.0000 0.02450  0.19890  0.81740  Biso   1.000  C
  C5       1.0000 0.13090  0.09500  0.98300  Biso   1.000  C
  H1       1.0000 0.16750  0.10070  0.02310  Biso   1.000  H
  H2       1.0000 0.09000  0.07010  0.98800  Biso   1.000  H
  C6       1.0000 0.01800  0.08580  0.83060  Biso   1.000  C
  H3       1.0000 0.99310  0.08750  0.78680  Biso   1.000  H
  H4       1.0000 0.98560  0.06250  0.84830  Biso   1.000  H
  C7       1.0000 0.23980  0.04980  0.96410  Biso   1.000  C
  C8       1.0000 0.12620  0.01800  0.89710  Biso   1.000  C
  C9       1.0000 0.19060  0.98600  0.87970  Biso   1.000  C
  C10      1.0000 0.12310  0.04950  0.80010  Biso   1.000  C
  C11      1.0000 0.33000  0.98090  0.94200  Biso   1.000  C
  H5       1.0000 0.32540  0.93590  0.93350  Biso   1.000  H
  H6       1.0000 0.35550  0.98600  0.98540  Biso   1.000  H
  C12      1.0000 0.22970  0.99720  0.78510  Biso   1.000  C
  H7       1.0000 0.23460  0.95150  0.78480  Biso   1.000  H
  H8       1.0000 0.20430  0.01060  0.74340  Biso   1.000  H
  C13      1.0000 0.43240  0.04880  0.93760  Biso   1.000  C
  C14      1.0000 0.36930  0.99670  0.84660  Biso   1.000  C
  C15      1.0000 0.43330  0.03780  0.83770  Biso   1.000  C
  C16      1.0000 0.31810  0.07360  0.77400  Biso   1.000  C
  C17      1.0000 0.53050  0.10620  0.91360  Biso   1.000  C
  H9       1.0000 0.56820  0.08730  0.89850  Biso   1.000  H
  H10      1.0000 0.55060  0.10690  0.95780  Biso   1.000  H
  C18      1.0000 0.42640  0.12220  0.75690  Biso   1.000  C
  H11      1.0000 0.46820  0.09970  0.75040  Biso   1.000  H
  H12      1.0000 0.38970  0.12980  0.71710  Biso   1.000  H
  C19      1.0000 0.51180  0.21860  0.92770  Biso   1.000  C
  C20      1.0000 0.52220  0.19190  0.83360  Biso   1.000  C
  C21      1.0000 0.52400  0.26550  0.84050  Biso   1.000  C
  C22      1.0000 0.42100  0.23560  0.75910  Biso   1.000  C
  C23      1.0000 0.51460  0.33370  0.92890  Biso   1.000  C
  H13      1.0000 0.52830  0.32590  0.97240  Biso   1.000  H
  H14      1.0000 0.55470  0.35840  0.92200  Biso   1.000  H
  C24      1.0000 0.44250  0.34880  0.77070  Biso   1.000  C
  H15      1.0000 0.41560  0.34920  0.72720  Biso   1.000  H
  H16      1.0000 0.48810  0.37320  0.77730  Biso   1.000  H
  C25      1.0000 0.40750  0.38130  0.94910  Biso   1.000  C
  C26      1.0000 0.42570  0.41320  0.85830  Biso   1.000  C
  C27      1.0000 0.35400  0.44540  0.86410  Biso   1.000  C
  C28      1.0000 0.32250  0.38050  0.77920  Biso   1.000  C
  C29      1.0000 0.30260  0.44700  0.95290  Biso   1.000  C
  H17      1.0000 0.29490  0.49200  0.94540  Biso   1.000  H
  H18      1.0000 0.32500  0.44130  0.99660  Biso   1.000  H
  C30      1.0000 0.21860  0.43750  0.79280  Biso   1.000  C
  H19      1.0000 0.19770  0.42650  0.74990  Biso   1.000  H
  H20      1.0000 0.21810  0.48320  0.79600  Biso   1.000  H
  C31      1.0000 0.21270  0.37430  0.97050  Biso   1.000  C
  C32      1.0000 0.16750  0.43460  0.88270  Biso   1.000  C
  C33      1.0000 0.10250  0.39370  0.89210  Biso   1.000  C
  C34      1.0000 0.12130  0.36550  0.80120  Biso   1.000  C
  C35      1.0000 0.10380  0.32260  0.98130  Biso   1.000  C
  H21      1.0000 0.05710  0.34320  0.97950  Biso   1.000  H
  H22      1.0000 0.13530  0.32190  0.02370  Biso   1.000  H
  C36      1.0000 0.01730  0.31240  0.82180  Biso   1.000  C
  H23      1.0000 0.97630  0.33330  0.83100  Biso   1.000  H
  H24      1.0000 0.00170  0.30550  0.77800  Biso   1.000  H
  C37      1.0000 0.95130  0.26280  0.91840  Biso   1.000  C
  H25      1.0000 0.90960  0.24820  0.88420  Biso   1.000  H
  H26      1.0000 0.95110  0.30860  0.91780  Biso   1.000  H
  C38      1.0000 0.94060  0.24020  0.97750  Biso   1.000  C
  H27      1.0000 0.97200  0.26520  0.01110  Biso   1.000  H
  H28      1.0000 0.88880  0.24690  0.97530  Biso   1.000  H
  C39      1.0000 0.95980  0.17140  0.98990  Biso   1.000  C
  H29      1.0000 0.00640  0.16790  0.02340  Biso   1.000  H
  H30      1.0000 0.92080  0.15110  0.00250  Biso   1.000  H
  C40      1.0000 0.96780  0.13730  0.93550  Biso   1.000  C
  H31      1.0000 0.92070  0.13930  0.90230  Biso   1.000  H
  H32      1.0000 0.97910  0.09320  0.94570  Biso   1.000  H
  C41      1.0000 0.07680  0.97120  0.91510  Biso   1.000  C
  H33      1.0000 0.03580  0.99340  0.92300  Biso   1.000  H
  H34      1.0000 0.10560  0.95000  0.95240  Biso   1.000  H
  C42      1.0000 0.04560  0.92270  0.86560  Biso   1.000  C
  H35      1.0000 0.00560  0.94190  0.83280  Biso   1.000  H
  H36      1.0000 0.02420  0.88810  0.88200  Biso   1.000  H
  C43      1.0000 0.10400  0.89650  0.83960  Biso   1.000  C
  H37      1.0000 0.10000  0.85080  0.83770  Biso   1.000  H
  H38      1.0000 0.09390  0.91210  0.79830  Biso   1.000  H
  C44      1.0000 0.18290  0.91460  0.87700  Biso   1.000  C
  H39      1.0000 0.21820  0.89670  0.85880  Biso   1.000  H
  H40      1.0000 0.19430  0.89780  0.91810  Biso   1.000  H
  C45      1.0000 0.37720  0.92780  0.83340  Biso   1.000  C
  H41      1.0000 0.33910  0.90370  0.84390  Biso   1.000  H
  H42      1.0000 0.36910  0.92230  0.79010  Biso   1.000  H
  C46      1.0000 0.45340  0.90260  0.86900  Biso   1.000  C
  H43      1.0000 0.45880  0.86010  0.85510  Biso   1.000  H
  H44      1.0000 0.45760  0.90020  0.91190  Biso   1.000  H
  C47      1.0000 0.51640  0.94380  0.86180  Biso   1.000  C
  H45      1.0000 0.54540  0.96020  0.90150  Biso   1.000  H
  H46      1.0000 0.54950  0.91790  0.84700  Biso   1.000  H
  C48      1.0000 0.48840  0.99840  0.81840  Biso   1.000  C
  H47      1.0000 0.53050  0.02450  0.81760  Biso   1.000  H
  H48      1.0000 0.46450  0.98230  0.77750  Biso   1.000  H
  C49      1.0000 0.58920  0.16750  0.81830  Biso   1.000  C
  H49      1.0000 0.58120  0.12350  0.80620  Biso   1.000  H
  H50      1.0000 0.63330  0.17000  0.85420  Biso   1.000  H
  C50      1.0000 0.60220  0.20540  0.76710  Biso   1.000  C
  H51      1.0000 0.64510  0.18820  0.75790  Biso   1.000  H
  H52      1.0000 0.55880  0.20130  0.73080  Biso   1.000  H
  C51      1.0000 0.61570  0.27410  0.78330  Biso   1.000  C
  H53      1.0000 0.58570  0.29930  0.74910  Biso   1.000  H
  H54      1.0000 0.66800  0.28360  0.78930  Biso   1.000  H
  C52      1.0000 0.59730  0.29340  0.84030  Biso   1.000  C
  H55      1.0000 0.63690  0.27920  0.87620  Biso   1.000  H
  H56      1.0000 0.59460  0.33910  0.84200  Biso   1.000  H
  C53      1.0000 0.48680  0.46000  0.85880  Biso   1.000  C
  H57      1.0000 0.47330  0.48270  0.82040  Biso   1.000  H
  H58      1.0000 0.53350  0.43780  0.86400  Biso   1.000  H
  C54      1.0000 0.49650  0.50620  0.91100  Biso   1.000  C
  H59      1.0000 0.50960  0.48300  0.94920  Biso   1.000  H
  H60      1.0000 0.53750  0.53480  0.91280  Biso   1.000  H
  C55      1.0000 0.42610  0.54420  0.90360  Biso   1.000  C
  H61      1.0000 0.41850  0.54770  0.94310  Biso   1.000  H
  H62      1.0000 0.43330  0.58650  0.89030  Biso   1.000  H
  C56      1.0000 0.35660  0.51640  0.85870  Biso   1.000  C
  H63      1.0000 0.35510  0.52740  0.81760  Biso   1.000  H
  H64      1.0000 0.31270  0.53450  0.86570  Biso   1.000  H
  C57      1.0000 0.14930  0.50320  0.88070  Biso   1.000  C
  H65      1.0000 0.18810  0.52700  0.87090  Biso   1.000  H
  H66      1.0000 0.14870  0.51670  0.92070  Biso   1.000  H
  C58      1.0000 0.07400  0.51780  0.83380  Biso   1.000  C
  H67      1.0000 0.07700  0.51040  0.79320  Biso   1.000  H
  H68      1.0000 0.06200  0.56200  0.83670  Biso   1.000  H
  C59      1.0000 0.01210  0.47700  0.84320  Biso   1.000  C
  H69      1.0000 0.97350  0.50440  0.84900  Biso   1.000  H
  H70      1.0000 0.98960  0.45230  0.80650  Biso   1.000  H
  C60      1.0000 0.03860  0.43310  0.89670  Biso   1.000  C
  H71      1.0000 0.05450  0.45740  0.93420  Biso   1.000  H
  H72      1.0000 0.99770  0.40580  0.89800  Biso   1.000  H
  N1       1.0000 0.08780  0.25863  0.96043  Biso   1.000  N
  N2       1.0000 0.10236  0.15586  0.95935  Biso   1.000  N
  N3       1.0000 0.03010  0.25233  0.85177  Biso   1.000  N
  N4       1.0000 0.02550  0.14851  0.85373  Biso   1.000  N
  N5       1.0000 0.16520  0.05986  0.94625  Biso   1.000  N
  N6       1.0000 0.25650  0.00740  0.92759  Biso   1.000  N
  N7       1.0000 0.08650  0.05151  0.84181  Biso   1.000  N
  N8       1.0000 0.18420  0.01349  0.82200  Biso   1.000  N
  N9       1.0000 0.37560  0.00816  0.90939  Biso   1.000  N
  N10      1.0000 0.46570  0.06695  0.89618  Biso   1.000  N
  N11      1.0000 0.30290  0.02455  0.80502  Biso   1.000  N
  N12      1.0000 0.39320  0.08289  0.79200  Biso   1.000  N
  N13      1.0000 0.51860  0.17060  0.89190  Biso   1.000  N
  N14      1.0000 0.51010  0.27409  0.89812  Biso   1.000  N
  N15      1.0000 0.45280  0.18188  0.78496  Biso   1.000  N
  N16      1.0000 0.46250  0.28549  0.78898  Biso   1.000  N
  N17      1.0000 0.44780  0.37070  0.91075  Biso   1.000  N
  N18      1.0000 0.35390  0.42520  0.92366  Biso   1.000  N
  N19      1.0000 0.39740  0.37909  0.80182  Biso   1.000  N
  N20      1.0000 0.29470  0.41606  0.81486  Biso   1.000  N
  N21      1.0000 0.23100  0.41634  0.93385  Biso   1.000  N
  N22      1.0000 0.14030  0.35915  0.94719  Biso   1.000  N
  N23      1.0000 0.17160  0.41118  0.82530  Biso   1.000  N
  N24      1.0000 0.08140  0.35360  0.83864  Biso   1.000  N
  O1       1.0000 0.18755  0.21344  0.03384  Biso   1.000  O
  O2       1.0000 0.28568  0.07489  0.00808  Biso   1.000  O
  O3       1.0000 0.45009  0.06498  0.99001  Biso   1.000  O
  O4       1.0000 0.50850  0.21352  0.97900  Biso   1.000  O
  O5       1.0000 0.41930  0.35685  0.99861  Biso   1.000  O
  O6       1.0000 0.25605  0.35506  0.01782  Biso   1.000  O
  O7       1.0000 0.01830  0.19703  0.76450  Biso   1.000  O
  O8       1.0000 0.10140  0.07409  0.75024  Biso   1.000  O
  O9       1.0000 0.27208  0.10464  0.73571  Biso   1.000  O
  O10      1.0000 0.36550  0.23996  0.71490  Biso   1.000  O
  O11      1.0000 0.28510  0.35371  0.73223  Biso   1.000  O
  O12      1.0000 0.11140  0.34004  0.75170  Biso   1.000  O
  Ce2      1.0000 0.24433  0.27724  0.64510  Biso   1.000  Ce
  C61      1.0000 0.13090  0.29030  0.48790  Biso   1.000  C
  C62      1.0000 0.02330  0.26060  0.41110  Biso   1.000  C
  C63      1.0000 0.02930  0.33400  0.41480  Biso   1.000  C
  C64      1.0000 0.02450  0.30110  0.31740  Biso   1.000  C
  C65      1.0000 0.13090  0.40500  0.48300  Biso   1.000  C
  H73      1.0000 0.16750  0.39930  0.52310  Biso   1.000  H
  H74      1.0000 0.09000  0.42990  0.48800  Biso   1.000  H
  C66      1.0000 0.01800  0.41420  0.33060  Biso   1.000  C
  H75      1.0000 0.99310  0.41250  0.28680  Biso   1.000  H
  H76      1.0000 0.98560  0.43750  0.34830  Biso   1.000  H
  C67      1.0000 0.23980  0.45020  0.46410  Biso   1.000  C
  C68      1.0000 0.12620  0.48200  0.39710  Biso   1.000  C
  C69      1.0000 0.19060  0.51400  0.37970  Biso   1.000  C
  C70      1.0000 0.12310  0.45050  0.30010  Biso   1.000  C
  C71      1.0000 0.33000  0.51910  0.44200  Biso   1.000  C
  H77      1.0000 0.32540  0.56410  0.43350  Biso   1.000  H
  H78      1.0000 0.35550  0.51400  0.48540  Biso   1.000  H
  C72      1.0000 0.22970  0.50280  0.28510  Biso   1.000  C
  H79      1.0000 0.23460  0.54850  0.28480  Biso   1.000  H
  H80      1.0000 0.20430  0.48940  0.24340  Biso   1.000  H
  C73      1.0000 0.43240  0.45120  0.43760  Biso   1.000  C
  C74      1.0000 0.36930  0.50330  0.34660  Biso   1.000  C
  C75      1.0000 0.43330  0.46220  0.33770  Biso   1.000  C
  C76      1.0000 0.31810  0.42640  0.27400  Biso   1.000  C
  C77      1.0000 0.53050  0.39380  0.41360  Biso   1.000  C
  H81      1.0000 0.56820  0.41270  0.39850  Biso   1.000  H
  H82      1.0000 0.55060  0.39310  0.45780  Biso   1.000  H
  C78      1.0000 0.42640  0.37780  0.25690  Biso   1.000  C
  H83      1.0000 0.46820  0.40030  0.25040  Biso   1.000  H
  H84      1.0000 0.38970  0.37020  0.21710  Biso   1.000  H
  C79      1.0000 0.51180  0.28140  0.42770  Biso   1.000  C
  C80      1.0000 0.52220  0.30810  0.33360  Biso   1.000  C
  C81      1.0000 0.52400  0.23450  0.34050  Biso   1.000  C
  C82      1.0000 0.42100  0.26440  0.25910  Biso   1.000  C
  C83      1.0000 0.51460  0.16630  0.42890  Biso   1.000  C
  H85      1.0000 0.52830  0.17410  0.47240  Biso   1.000  H
  H86      1.0000 0.55470  0.14160  0.42200  Biso   1.000  H
  C84      1.0000 0.44250  0.15120  0.27070  Biso   1.000  C
  H87      1.0000 0.41560  0.15080  0.22720  Biso   1.000  H
  H88      1.0000 0.48810  0.12680  0.27730  Biso   1.000  H
  C85      1.0000 0.40750  0.11870  0.44910  Biso   1.000  C
  C86      1.0000 0.42570  0.08680  0.35830  Biso   1.000  C
  C87      1.0000 0.35400  0.05460  0.36410  Biso   1.000  C
  C88      1.0000 0.32250  0.11950  0.27920  Biso   1.000  C
  C89      1.0000 0.30260  0.05300  0.45290  Biso   1.000  C
  H89      1.0000 0.29490  0.00800  0.44540  Biso   1.000  H
  H90      1.0000 0.32500  0.05870  0.49660  Biso   1.000  H
  C90      1.0000 0.21860  0.06250  0.29280  Biso   1.000  C
  H91      1.0000 0.19770  0.07350  0.24990  Biso   1.000  H
  H92      1.0000 0.21810  0.01680  0.29600  Biso   1.000  H
  C91      1.0000 0.21270  0.12570  0.47050  Biso   1.000  C
  C92      1.0000 0.16750  0.06540  0.38270  Biso   1.000  C
  C93      1.0000 0.10250  0.10630  0.39210  Biso   1.000  C
  C94      1.0000 0.12130  0.13450  0.30120  Biso   1.000  C
  C95      1.0000 0.10380  0.17740  0.48130  Biso   1.000  C
  H93      1.0000 0.05710  0.15680  0.47950  Biso   1.000  H
  H94      1.0000 0.13530  0.17810  0.52370  Biso   1.000  H
  C96      1.0000 0.01730  0.18760  0.32180  Biso   1.000  C
  H95      1.0000 0.97630  0.16670  0.33100  Biso   1.000  H
  H96      1.0000 0.00170  0.19450  0.27800  Biso   1.000  H
  C97      1.0000 0.95130  0.23720  0.41840  Biso   1.000  C
  H97      1.0000 0.90960  0.25180  0.38420  Biso   1.000  H
  H98      1.0000 0.95110  0.19140  0.41780  Biso   1.000  H
  C98      1.0000 0.94060  0.25980  0.47750  Biso   1.000  C
  H99      1.0000 0.97200  0.23480  0.51110  Biso   1.000  H
  H100     1.0000 0.88880  0.25310  0.47530  Biso   1.000  H
  C99      1.0000 0.95980  0.32860  0.48990  Biso   1.000  C
  H101     1.0000 0.00640  0.33210  0.52340  Biso   1.000  H
  H102     1.0000 0.92080  0.34890  0.50250  Biso   1.000  H
  C100     1.0000 0.96780  0.36270  0.43550  Biso   1.000  C
  H103     1.0000 0.92070  0.36070  0.40230  Biso   1.000  H
  H104     1.0000 0.97910  0.40680  0.44570  Biso   1.000  H
  C101     1.0000 0.07680  0.52880  0.41510  Biso   1.000  C
  H105     1.0000 0.03580  0.50660  0.42300  Biso   1.000  H
  H106     1.0000 0.10560  0.55000  0.45240  Biso   1.000  H
  C102     1.0000 0.04560  0.57730  0.36560  Biso   1.000  C
  H107     1.0000 0.00560  0.55810  0.33280  Biso   1.000  H
  H108     1.0000 0.02420  0.61190  0.38200  Biso   1.000  H
  C103     1.0000 0.10400  0.60350  0.33960  Biso   1.000  C
  H109     1.0000 0.10000  0.64920  0.33770  Biso   1.000  H
  H110     1.0000 0.09390  0.58790  0.29830  Biso   1.000  H
  C104     1.0000 0.18290  0.58540  0.37700  Biso   1.000  C
  H111     1.0000 0.21820  0.60330  0.35880  Biso   1.000  H
  H112     1.0000 0.19430  0.60220  0.41810  Biso   1.000  H
  C105     1.0000 0.37720  0.57220  0.33340  Biso   1.000  C
  H113     1.0000 0.33910  0.59630  0.34390  Biso   1.000  H
  H114     1.0000 0.36910  0.57770  0.29010  Biso   1.000  H
  C106     1.0000 0.45340  0.59740  0.36900  Biso   1.000  C
  H115     1.0000 0.45880  0.63990  0.35510  Biso   1.000  H
  H116     1.0000 0.45760  0.59980  0.41190  Biso   1.000  H
  C107     1.0000 0.51640  0.55620  0.36180  Biso   1.000  C
  H117     1.0000 0.54540  0.53980  0.40150  Biso   1.000  H
  H118     1.0000 0.54950  0.58210  0.34700  Biso   1.000  H
  C108     1.0000 0.48840  0.50160  0.31840  Biso   1.000  C
  H119     1.0000 0.53050  0.47550  0.31760  Biso   1.000  H
  H120     1.0000 0.46450  0.51770  0.27750  Biso   1.000  H
  C109     1.0000 0.58920  0.33250  0.31830  Biso   1.000  C
  H121     1.0000 0.58120  0.37650  0.30620  Biso   1.000  H
  H122     1.0000 0.63330  0.33000  0.35420  Biso   1.000  H
  C110     1.0000 0.60220  0.29460  0.26710  Biso   1.000  C
  H123     1.0000 0.64510  0.31180  0.25790  Biso   1.000  H
  H124     1.0000 0.55880  0.29870  0.23080  Biso   1.000  H
  C111     1.0000 0.61570  0.22590  0.28330  Biso   1.000  C
  H125     1.0000 0.58570  0.20070  0.24910  Biso   1.000  H
  H126     1.0000 0.66800  0.21640  0.28930  Biso   1.000  H
  C112     1.0000 0.59730  0.20660  0.34030  Biso   1.000  C
  H127     1.0000 0.63690  0.22080  0.37620  Biso   1.000  H
  H128     1.0000 0.59460  0.16090  0.34200  Biso   1.000  H
  C113     1.0000 0.48680  0.04000  0.35880  Biso   1.000  C
  H129     1.0000 0.47330  0.01730  0.32040  Biso   1.000  H
  H130     1.0000 0.53350  0.06220  0.36400  Biso   1.000  H
  C114     1.0000 0.49650  0.99380  0.41100  Biso   1.000  C
  H131     1.0000 0.50960  0.01700  0.44920  Biso   1.000  H
  H132     1.0000 0.53750  0.96520  0.41280  Biso   1.000  H
  C115     1.0000 0.42610  0.95580  0.40360  Biso   1.000  C
  H133     1.0000 0.41850  0.95230  0.44310  Biso   1.000  H
  H134     1.0000 0.43330  0.91350  0.39030  Biso   1.000  H
  C116     1.0000 0.35660  0.98360  0.35870  Biso   1.000  C
  H135     1.0000 0.35510  0.97260  0.31760  Biso   1.000  H
  H136     1.0000 0.31270  0.96550  0.36570  Biso   1.000  H
  C117     1.0000 0.14930  0.99680  0.38070  Biso   1.000  C
  H137     1.0000 0.18810  0.97300  0.37090  Biso   1.000  H
  H138     1.0000 0.14870  0.98330  0.42070  Biso   1.000  H
  C118     1.0000 0.07400  0.98220  0.33380  Biso   1.000  C
  H139     1.0000 0.07700  0.98960  0.29320  Biso   1.000  H
  H140     1.0000 0.06200  0.93800  0.33670  Biso   1.000  H
  C119     1.0000 0.01210  0.02300  0.34320  Biso   1.000  C
  H141     1.0000 0.97350  0.99560  0.34900  Biso   1.000  H
  H142     1.0000 0.98960  0.04770  0.30650  Biso   1.000  H
  C120     1.0000 0.03860  0.06690  0.39670  Biso   1.000  C
  H143     1.0000 0.05450  0.04260  0.43420  Biso   1.000  H
  H144     1.0000 0.99770  0.09420  0.39800  Biso   1.000  H
  N25      1.0000 0.08780  0.24137  0.46043  Biso   1.000  N
  N26      1.0000 0.10236  0.34414  0.45935  Biso   1.000  N
  N27      1.0000 0.03010  0.24767  0.35177  Biso   1.000  N
  N28      1.0000 0.02550  0.35149  0.35373  Biso   1.000  N
  N29      1.0000 0.16520  0.44014  0.44625  Biso   1.000  N
  N30      1.0000 0.25650  0.49260  0.42759  Biso   1.000  N
  N31      1.0000 0.08650  0.44849  0.34181  Biso   1.000  N
  N32      1.0000 0.18420  0.48651  0.32200  Biso   1.000  N
  N33      1.0000 0.37560  0.49184  0.40939  Biso   1.000  N
  N34      1.0000 0.46570  0.43305  0.39618  Biso   1.000  N
  N35      1.0000 0.30290  0.47545  0.30502  Biso   1.000  N
  N36      1.0000 0.39320  0.41711  0.29200  Biso   1.000  N
  N37      1.0000 0.51860  0.32940  0.39190  Biso   1.000  N
  N38      1.0000 0.51010  0.22591  0.39812  Biso   1.000  N
  N39      1.0000 0.45280  0.31812  0.28496  Biso   1.000  N
  N40      1.0000 0.46250  0.21451  0.28898  Biso   1.000  N
  N41      1.0000 0.44780  0.12930  0.41075  Biso   1.000  N
  N42      1.0000 0.35390  0.07480  0.42366  Biso   1.000  N
  N43      1.0000 0.39740  0.12091  0.30182  Biso   1.000  N
  N44      1.0000 0.29470  0.08394  0.31486  Biso   1.000  N
  N45      1.0000 0.23100  0.08366  0.43385  Biso   1.000  N
  N46      1.0000 0.14030  0.14085  0.44719  Biso   1.000  N
  N47      1.0000 0.17160  0.08882  0.32530  Biso   1.000  N
  N48      1.0000 0.08140  0.14640  0.33864  Biso   1.000  N
  O13      1.0000 0.18755  0.28656  0.53384  Biso   1.000  O
  O14      1.0000 0.28568  0.42511  0.50808  Biso   1.000  O
  O15      1.0000 0.45009  0.43502  0.49001  Biso   1.000  O
  O16      1.0000 0.50850  0.28648  0.47900  Biso   1.000  O
  O17      1.0000 0.41930  0.14315  0.49861  Biso   1.000  O
  O18      1.0000 0.25605  0.14494  0.51782  Biso   1.000  O
  O19      1.0000 0.01830  0.30297  0.26450  Biso   1.000  O
  O20      1.0000 0.10140  0.42591  0.25024  Biso   1.000  O
  O21      1.0000 0.27208  0.39536  0.23571  Biso   1.000  O
  O22      1.0000 0.36550  0.26004  0.21490  Biso   1.000  O
  O23      1.0000 0.28510  0.14629  0.23223  Biso   1.000  O
  O24      1.0000 0.11140  0.15996  0.25170  Biso   1.000  O
  Ce3      1.0000 0.75567  0.72276  0.35490  Biso   1.000  Ce
  C121     1.0000 0.86910  0.70970  0.51210  Biso   1.000  C
  C122     1.0000 0.97670  0.73940  0.58890  Biso   1.000  C
  C123     1.0000 0.97070  0.66600  0.58520  Biso   1.000  C
  C124     1.0000 0.97550  0.69890  0.68260  Biso   1.000  C
  C125     1.0000 0.86910  0.59500  0.51700  Biso   1.000  C
  H145     1.0000 0.83250  0.60070  0.47690  Biso   1.000  H
  H146     1.0000 0.91000  0.57010  0.51200  Biso   1.000  H
  C126     1.0000 0.98200  0.58580  0.66940  Biso   1.000  C
  H147     1.0000 0.00690  0.58750  0.71320  Biso   1.000  H
  H148     1.0000 0.01440  0.56250  0.65170  Biso   1.000  H
  C127     1.0000 0.76020  0.54980  0.53590  Biso   1.000  C
  C128     1.0000 0.87380  0.51800  0.60290  Biso   1.000  C
  C129     1.0000 0.80940  0.48600  0.62030  Biso   1.000  C
  C130     1.0000 0.87690  0.54950  0.69990  Biso   1.000  C
  C131     1.0000 0.67000  0.48090  0.55800  Biso   1.000  C
  H149     1.0000 0.67460  0.43590  0.56650  Biso   1.000  H
  H150     1.0000 0.64450  0.48600  0.51460  Biso   1.000  H
  C132     1.0000 0.77030  0.49720  0.71490  Biso   1.000  C
  H151     1.0000 0.76540  0.45150  0.71520  Biso   1.000  H
  H152     1.0000 0.79570  0.51060  0.75660  Biso   1.000  H
  C133     1.0000 0.56760  0.54880  0.56240  Biso   1.000  C
  C134     1.0000 0.63070  0.49670  0.65340  Biso   1.000  C
  C135     1.0000 0.56670  0.53780  0.66230  Biso   1.000  C
  C136     1.0000 0.68190  0.57360  0.72600  Biso   1.000  C
  C137     1.0000 0.46950  0.60620  0.58640  Biso   1.000  C
  H153     1.0000 0.43180  0.58730  0.60150  Biso   1.000  H
  H154     1.0000 0.44940  0.60690  0.54220  Biso   1.000  H
  C138     1.0000 0.57360  0.62220  0.74310  Biso   1.000  C
  H155     1.0000 0.53180  0.59970  0.74960  Biso   1.000  H
  H156     1.0000 0.61030  0.62980  0.78290  Biso   1.000  H
  C139     1.0000 0.48820  0.71860  0.57230  Biso   1.000  C
  C140     1.0000 0.47780  0.69190  0.66640  Biso   1.000  C
  C141     1.0000 0.47600  0.76550  0.65950  Biso   1.000  C
  C142     1.0000 0.57900  0.73560  0.74090  Biso   1.000  C
  C143     1.0000 0.48540  0.83370  0.57110  Biso   1.000  C
  H157     1.0000 0.47170  0.82590  0.52760  Biso   1.000  H
  H158     1.0000 0.44530  0.85840  0.57800  Biso   1.000  H
  C144     1.0000 0.55750  0.84880  0.72930  Biso   1.000  C
  H159     1.0000 0.58440  0.84920  0.77280  Biso   1.000  H
  H160     1.0000 0.51190  0.87320  0.72270  Biso   1.000  H
  C145     1.0000 0.59250  0.88130  0.55090  Biso   1.000  C
  C146     1.0000 0.57430  0.91320  0.64170  Biso   1.000  C
  C147     1.0000 0.64600  0.94540  0.63590  Biso   1.000  C
  C148     1.0000 0.67750  0.88050  0.72080  Biso   1.000  C
  C149     1.0000 0.69740  0.94700  0.54710  Biso   1.000  C
  H161     1.0000 0.70510  0.99200  0.55460  Biso   1.000  H
  H162     1.0000 0.67500  0.94130  0.50340  Biso   1.000  H
  C150     1.0000 0.78140  0.93750  0.70720  Biso   1.000  C
  H163     1.0000 0.80230  0.92650  0.75010  Biso   1.000  H
  H164     1.0000 0.78190  0.98320  0.70400  Biso   1.000  H
  C151     1.0000 0.78730  0.87430  0.52950  Biso   1.000  C
  C152     1.0000 0.83250  0.93460  0.61730  Biso   1.000  C
  C153     1.0000 0.89750  0.89370  0.60790  Biso   1.000  C
  C154     1.0000 0.87870  0.86550  0.69880  Biso   1.000  C
  C155     1.0000 0.89620  0.82260  0.51870  Biso   1.000  C
  H165     1.0000 0.94290  0.84320  0.52050  Biso   1.000  H
  H166     1.0000 0.86470  0.82190  0.47630  Biso   1.000  H
  C156     1.0000 0.98270  0.81240  0.67820  Biso   1.000  C
  H167     1.0000 0.02370  0.83330  0.66900  Biso   1.000  H
  H168     1.0000 0.99830  0.80550  0.72200  Biso   1.000  H
  C157     1.0000 0.04870  0.76280  0.58160  Biso   1.000  C
  H169     1.0000 0.09040  0.74820  0.61580  Biso   1.000  H
  H170     1.0000 0.04890  0.80860  0.58220  Biso   1.000  H
  C158     1.0000 0.05940  0.74020  0.52250  Biso   1.000  C
  H171     1.0000 0.02800  0.76520  0.48890  Biso   1.000  H
  H172     1.0000 0.11120  0.74690  0.52470  Biso   1.000  H
  C159     1.0000 0.04020  0.67140  0.51010  Biso   1.000  C
  H173     1.0000 0.99360  0.66790  0.47660  Biso   1.000  H
  H174     1.0000 0.07920  0.65110  0.49750  Biso   1.000  H
  C160     1.0000 0.03220  0.63730  0.56450  Biso   1.000  C
  H175     1.0000 0.07930  0.63930  0.59770  Biso   1.000  H
  H176     1.0000 0.02090  0.59320  0.55430  Biso   1.000  H
  C161     1.0000 0.92320  0.47120  0.58490  Biso   1.000  C
  H177     1.0000 0.96420  0.49340  0.57700  Biso   1.000  H
  H178     1.0000 0.89440  0.45000  0.54760  Biso   1.000  H
  C162     1.0000 0.95440  0.42270  0.63440  Biso   1.000  C
  H179     1.0000 0.99440  0.44190  0.66720  Biso   1.000  H
  H180     1.0000 0.97580  0.38810  0.61800  Biso   1.000  H
  C163     1.0000 0.89600  0.39650  0.66040  Biso   1.000  C
  H181     1.0000 0.90000  0.35080  0.66230  Biso   1.000  H
  H182     1.0000 0.90610  0.41210  0.70170  Biso   1.000  H
  C164     1.0000 0.81710  0.41460  0.62300  Biso   1.000  C
  H183     1.0000 0.78180  0.39670  0.64120  Biso   1.000  H
  H184     1.0000 0.80570  0.39780  0.58190  Biso   1.000  H
  C165     1.0000 0.62280  0.42780  0.66660  Biso   1.000  C
  H185     1.0000 0.66090  0.40370  0.65610  Biso   1.000  H
  H186     1.0000 0.63090  0.42230  0.70990  Biso   1.000  H
  C166     1.0000 0.54660  0.40260  0.63100  Biso   1.000  C
  H187     1.0000 0.54120  0.36010  0.64490  Biso   1.000  H
  H188     1.0000 0.54240  0.40020  0.58810  Biso   1.000  H
  C167     1.0000 0.48360  0.44380  0.63820  Biso   1.000  C
  H189     1.0000 0.45460  0.46020  0.59850  Biso   1.000  H
  H190     1.0000 0.45050  0.41790  0.65300  Biso   1.000  H
  C168     1.0000 0.51160  0.49840  0.68160  Biso   1.000  C
  H191     1.0000 0.46950  0.52450  0.68240  Biso   1.000  H
  H192     1.0000 0.53550  0.48230  0.72250  Biso   1.000  H
  C169     1.0000 0.41080  0.66750  0.68170  Biso   1.000  C
  H193     1.0000 0.41880  0.62350  0.69380  Biso   1.000  H
  H194     1.0000 0.36670  0.67000  0.64580  Biso   1.000  H
  C170     1.0000 0.39780  0.70540  0.73290  Biso   1.000  C
  H195     1.0000 0.35490  0.68820  0.74210  Biso   1.000  H
  H196     1.0000 0.44120  0.70130  0.76920  Biso   1.000  H
  C171     1.0000 0.38430  0.77410  0.71670  Biso   1.000  C
  H197     1.0000 0.41430  0.79930  0.75090  Biso   1.000  H
  H198     1.0000 0.33200  0.78360  0.71070  Biso   1.000  H
  C172     1.0000 0.40270  0.79340  0.65970  Biso   1.000  C
  H199     1.0000 0.36310  0.77920  0.62380  Biso   1.000  H
  H200     1.0000 0.40540  0.83910  0.65800  Biso   1.000  H
  C173     1.0000 0.51320  0.96000  0.64120  Biso   1.000  C
  H201     1.0000 0.52670  0.98270  0.67960  Biso   1.000  H
  H202     1.0000 0.46650  0.93780  0.63600  Biso   1.000  H
  C174     1.0000 0.50350  0.00620  0.58900  Biso   1.000  C
  H203     1.0000 0.49040  0.98300  0.55080  Biso   1.000  H
  H204     1.0000 0.46250  0.03480  0.58720  Biso   1.000  H
  C175     1.0000 0.57390  0.04420  0.59640  Biso   1.000  C
  H205     1.0000 0.58150  0.04770  0.55690  Biso   1.000  H
  H206     1.0000 0.56670  0.08650  0.60970  Biso   1.000  H
  C176     1.0000 0.64340  0.01640  0.64130  Biso   1.000  C
  H207     1.0000 0.64490  0.02740  0.68240  Biso   1.000  H
  H208     1.0000 0.68730  0.03450  0.63430  Biso   1.000  H
  C177     1.0000 0.85070  0.00320  0.61930  Biso   1.000  C
  H209     1.0000 0.81190  0.02700  0.62910  Biso   1.000  H
  H210     1.0000 0.85130  0.01670  0.57930  Biso   1.000  H
  C178     1.0000 0.92600  0.01780  0.66620  Biso   1.000  C
  H211     1.0000 0.92300  0.01040  0.70680  Biso   1.000  H
  H212     1.0000 0.93800  0.06200  0.66330  Biso   1.000  H
  C179     1.0000 0.98790  0.97700  0.65680  Biso   1.000  C
  H213     1.0000 0.02650  0.00440  0.65100  Biso   1.000  H
  H214     1.0000 0.01040  0.95230  0.69350  Biso   1.000  H
  C180     1.0000 0.96140  0.93310  0.60330  Biso   1.000  C
  H215     1.0000 0.94550  0.95740  0.56580  Biso   1.000  H
  H216     1.0000 0.00230  0.90580  0.60200  Biso   1.000  H
  N49      1.0000 0.91220  0.75863  0.53957  Biso   1.000  N
  N50      1.0000 0.89764  0.65586  0.54065  Biso   1.000  N
  N51      1.0000 0.96990  0.75233  0.64823  Biso   1.000  N
  N52      1.0000 0.97450  0.64851  0.64627  Biso   1.000  N
  N53      1.0000 0.83480  0.55986  0.55375  Biso   1.000  N
  N54      1.0000 0.74350  0.50740  0.57241  Biso   1.000  N
  N55      1.0000 0.91350  0.55151  0.65819  Biso   1.000  N
  N56      1.0000 0.81580  0.51349  0.67800  Biso   1.000  N
  N57      1.0000 0.62440  0.50816  0.59061  Biso   1.000  N
  N58      1.0000 0.53430  0.56695  0.60382  Biso   1.000  N
  N59      1.0000 0.69710  0.52455  0.69498  Biso   1.000  N
  N60      1.0000 0.60680  0.58289  0.70800  Biso   1.000  N
  N61      1.0000 0.48140  0.67060  0.60810  Biso   1.000  N
  N62      1.0000 0.48990  0.77409  0.60188  Biso   1.000  N
  N63      1.0000 0.54720  0.68188  0.71504  Biso   1.000  N
  N64      1.0000 0.53750  0.78549  0.71102  Biso   1.000  N
  N65      1.0000 0.55220  0.87070  0.58925  Biso   1.000  N
  N66      1.0000 0.64610  0.92520  0.57634  Biso   1.000  N
  N67      1.0000 0.60260  0.87909  0.69818  Biso   1.000  N
  N68      1.0000 0.70530  0.91606  0.68514  Biso   1.000  N
  N69      1.0000 0.76900  0.91634  0.56615  Biso   1.000  N
  N70      1.0000 0.85970  0.85915  0.55281  Biso   1.000  N
  N71      1.0000 0.82840  0.91118  0.67470  Biso   1.000  N
  N72      1.0000 0.91860  0.85360  0.66136  Biso   1.000  N
  O25      1.0000 0.81245  0.71344  0.46616  Biso   1.000  O
  O26      1.0000 0.71432  0.57489  0.49192  Biso   1.000  O
  O27      1.0000 0.54991  0.56498  0.50999  Biso   1.000  O
  O28      1.0000 0.49150  0.71352  0.52100  Biso   1.000  O
  O29      1.0000 0.58070  0.85685  0.50139  Biso   1.000  O
  O30      1.0000 0.74395  0.85506  0.48218  Biso   1.000  O
  O31      1.0000 0.98170  0.69703  0.73550  Biso   1.000  O
  O32      1.0000 0.89860  0.57409  0.74976  Biso   1.000  O
  O33      1.0000 0.72792  0.60464  0.76429  Biso   1.000  O
  O34      1.0000 0.63450  0.73996  0.78510  Biso   1.000  O
  O35      1.0000 0.71490  0.85371  0.76777  Biso   1.000  O
  O36      1.0000 0.88860  0.84004  0.74830  Biso   1.000  O
  Ce4      1.0000 0.75567  0.77724  0.85490  Biso   1.000  Ce
  C181     1.0000 0.86910  0.79030  0.01210  Biso   1.000  C
  C182     1.0000 0.97670  0.76060  0.08890  Biso   1.000  C
  C183     1.0000 0.97070  0.83400  0.08520  Biso   1.000  C
  C184     1.0000 0.97550  0.80110  0.18260  Biso   1.000  C
  C185     1.0000 0.86910  0.90500  0.01700  Biso   1.000  C
  H217     1.0000 0.83250  0.89930  0.97690  Biso   1.000  H
  H218     1.0000 0.91000  0.92990  0.01200  Biso   1.000  H
  C186     1.0000 0.98200  0.91420  0.16940  Biso   1.000  C
  H219     1.0000 0.00690  0.91250  0.21320  Biso   1.000  H
  H220     1.0000 0.01440  0.93750  0.15170  Biso   1.000  H
  C187     1.0000 0.76020  0.95020  0.03590  Biso   1.000  C
  C188     1.0000 0.87380  0.98200  0.10290  Biso   1.000  C
  C189     1.0000 0.80940  0.01400  0.12030  Biso   1.000  C
  C190     1.0000 0.87690  0.95050  0.19990  Biso   1.000  C
  C191     1.0000 0.67000  0.01910  0.05800  Biso   1.000  C
  H221     1.0000 0.67460  0.06410  0.06650  Biso   1.000  H
  H222     1.0000 0.64450  0.01400  0.01460  Biso   1.000  H
  C192     1.0000 0.77030  0.00280  0.21490  Biso   1.000  C
  H223     1.0000 0.76540  0.04850  0.21520  Biso   1.000  H
  H224     1.0000 0.79570  0.98940  0.25660  Biso   1.000  H
  C193     1.0000 0.56760  0.95120  0.06240  Biso   1.000  C
  C194     1.0000 0.63070  0.00330  0.15340  Biso   1.000  C
  C195     1.0000 0.56670  0.96220  0.16230  Biso   1.000  C
  C196     1.0000 0.68190  0.92640  0.22600  Biso   1.000  C
  C197     1.0000 0.46950  0.89380  0.08640  Biso   1.000  C
  H225     1.0000 0.43180  0.91270  0.10150  Biso   1.000  H
  H226     1.0000 0.44940  0.89310  0.04220  Biso   1.000  H
  C198     1.0000 0.57360  0.87780  0.24310  Biso   1.000  C
  H227     1.0000 0.53180  0.90030  0.24960  Biso   1.000  H
  H228     1.0000 0.61030  0.87020  0.28290  Biso   1.000  H
  C199     1.0000 0.48820  0.78140  0.07230  Biso   1.000  C
  C200     1.0000 0.47780  0.80810  0.16640  Biso   1.000  C
  C201     1.0000 0.47600  0.73450  0.15950  Biso   1.000  C
  C202     1.0000 0.57900  0.76440  0.24090  Biso   1.000  C
  C203     1.0000 0.48540  0.66630  0.07110  Biso   1.000  C
  H229     1.0000 0.47170  0.67410  0.02760  Biso   1.000  H
  H230     1.0000 0.44530  0.64160  0.07800  Biso   1.000  H
  C204     1.0000 0.55750  0.65120  0.22930  Biso   1.000  C
  H231     1.0000 0.58440  0.65080  0.27280  Biso   1.000  H
  H232     1.0000 0.51190  0.62680  0.22270  Biso   1.000  H
  C205     1.0000 0.59250  0.61870  0.05090  Biso   1.000  C
  C206     1.0000 0.57430  0.58680  0.14170  Biso   1.000  C
  C207     1.0000 0.64600  0.55460  0.13590  Biso   1.000  C
  C208     1.0000 0.67750  0.61950  0.22080  Biso   1.000  C
  C209     1.0000 0.69740  0.55300  0.04710  Biso   1.000  C
  H233     1.0000 0.70510  0.50800  0.05460  Biso   1.000  H
  H234     1.0000 0.67500  0.55870  0.00340  Biso   1.000  H
  C210     1.0000 0.78140  0.56250  0.20720  Biso   1.000  C
  H235     1.0000 0.80230  0.57350  0.25010  Biso   1.000  H
  H236     1.0000 0.78190  0.51680  0.20400  Biso   1.000  H
  C211     1.0000 0.78730  0.62570  0.02950  Biso   1.000  C
  C212     1.0000 0.83250  0.56540  0.11730  Biso   1.000  C
  C213     1.0000 0.89750  0.60630  0.10790  Biso   1.000  C
  C214     1.0000 0.87870  0.63450  0.19880  Biso   1.000  C
  C215     1.0000 0.89620  0.67740  0.01870  Biso   1.000  C
  H237     1.0000 0.94290  0.65680  0.02050  Biso   1.000  H
  H238     1.0000 0.86470  0.67810  0.97630  Biso   1.000  H
  C216     1.0000 0.98270  0.68760  0.17820  Biso   1.000  C
  H239     1.0000 0.02370  0.66670  0.16900  Biso   1.000  H
  H240     1.0000 0.99830  0.69450  0.22200  Biso   1.000  H
  C217     1.0000 0.04870  0.73720  0.08160  Biso   1.000  C
  H241     1.0000 0.09040  0.75180  0.11580  Biso   1.000  H
  H242     1.0000 0.04890  0.69140  0.08220  Biso   1.000  H
  C218     1.0000 0.05940  0.75980  0.02250  Biso   1.000  C
  H243     1.0000 0.02800  0.73480  0.98890  Biso   1.000  H
  H244     1.0000 0.11120  0.75310  0.02470  Biso   1.000  H
  C219     1.0000 0.04020  0.82860  0.01010  Biso   1.000  C
  H245     1.0000 0.99360  0.83210  0.97660  Biso   1.000  H
  H246     1.0000 0.07920  0.84890  0.99750  Biso   1.000  H
  C220     1.0000 0.03220  0.86270  0.06450  Biso   1.000  C
  H247     1.0000 0.07930  0.86070  0.09770  Biso   1.000  H
  H248     1.0000 0.02090  0.90680  0.05430  Biso   1.000  H
  C221     1.0000 0.92320  0.02880  0.08490  Biso   1.000  C
  H249     1.0000 0.96420  0.00660  0.07700  Biso   1.000  H
  H250     1.0000 0.89440  0.05000  0.04760  Biso   1.000  H
  C222     1.0000 0.95440  0.07730  0.13440  Biso   1.000  C
  H251     1.0000 0.99440  0.05810  0.16720  Biso   1.000  H
  H252     1.0000 0.97580  0.11190  0.11800  Biso   1.000  H
  C223     1.0000 0.89600  0.10350  0.16040  Biso   1.000  C
  H253     1.0000 0.90000  0.14920  0.16230  Biso   1.000  H
  H254     1.0000 0.90610  0.08790  0.20170  Biso   1.000  H
  C224     1.0000 0.81710  0.08540  0.12300  Biso   1.000  C
  H255     1.0000 0.78180  0.10330  0.14120  Biso   1.000  H
  H256     1.0000 0.80570  0.10220  0.08190  Biso   1.000  H
  C225     1.0000 0.62280  0.07220  0.16660  Biso   1.000  C
  H257     1.0000 0.66090  0.09630  0.15610  Biso   1.000  H
  H258     1.0000 0.63090  0.07770  0.20990  Biso   1.000  H
  C226     1.0000 0.54660  0.09740  0.13100  Biso   1.000  C
  H259     1.0000 0.54120  0.13990  0.14490  Biso   1.000  H
  H260     1.0000 0.54240  0.09980  0.08810  Biso   1.000  H
  C227     1.0000 0.48360  0.05620  0.13820  Biso   1.000  C
  H261     1.0000 0.45460  0.03980  0.09850  Biso   1.000  H
  H262     1.0000 0.45050  0.08210  0.15300  Biso   1.000  H
  C228     1.0000 0.51160  0.00160  0.18160  Biso   1.000  C
  H263     1.0000 0.46950  0.97550  0.18240  Biso   1.000  H
  H264     1.0000 0.53550  0.01770  0.22250  Biso   1.000  H
  C229     1.0000 0.41080  0.83250  0.18170  Biso   1.000  C
  H265     1.0000 0.41880  0.87650  0.19380  Biso   1.000  H
  H266     1.0000 0.36670  0.83000  0.14580  Biso   1.000  H
  C230     1.0000 0.39780  0.79460  0.23290  Biso   1.000  C
  H267     1.0000 0.35490  0.81180  0.24210  Biso   1.000  H
  H268     1.0000 0.44120  0.79870  0.26920  Biso   1.000  H
  C231     1.0000 0.38430  0.72590  0.21670  Biso   1.000  C
  H269     1.0000 0.41430  0.70070  0.25090  Biso   1.000  H
  H270     1.0000 0.33200  0.71640  0.21070  Biso   1.000  H
  C232     1.0000 0.40270  0.70660  0.15970  Biso   1.000  C
  H271     1.0000 0.36310  0.72080  0.12380  Biso   1.000  H
  H272     1.0000 0.40540  0.66090  0.15800  Biso   1.000  H
  C233     1.0000 0.51320  0.54000  0.14120  Biso   1.000  C
  H273     1.0000 0.52670  0.51730  0.17960  Biso   1.000  H
  H274     1.0000 0.46650  0.56220  0.13600  Biso   1.000  H
  C234     1.0000 0.50350  0.49380  0.08900  Biso   1.000  C
  H275     1.0000 0.49040  0.51700  0.05080  Biso   1.000  H
  H276     1.0000 0.46250  0.46520  0.08720  Biso   1.000  H
  C235     1.0000 0.57390  0.45580  0.09640  Biso   1.000  C
  H277     1.0000 0.58150  0.45230  0.05690  Biso   1.000  H
  H278     1.0000 0.56670  0.41350  0.10970  Biso   1.000  H
  C236     1.0000 0.64340  0.48360  0.14130  Biso   1.000  C
  H279     1.0000 0.64490  0.47260  0.18240  Biso   1.000  H
  H280     1.0000 0.68730  0.46550  0.13430  Biso   1.000  H
  C237     1.0000 0.85070  0.49680  0.11930  Biso   1.000  C
  H281     1.0000 0.81190  0.47300  0.12910  Biso   1.000  H
  H282     1.0000 0.85130  0.48330  0.07930  Biso   1.000  H
  C238     1.0000 0.92600  0.48220  0.16620  Biso   1.000  C
  H283     1.0000 0.92300  0.48960  0.20680  Biso   1.000  H
  H284     1.0000 0.93800  0.43800  0.16330  Biso   1.000  H
  C239     1.0000 0.98790  0.52300  0.15680  Biso   1.000  C
  H285     1.0000 0.02650  0.49560  0.15100  Biso   1.000  H
  H286     1.0000 0.01040  0.54770  0.19350  Biso   1.000  H
  C240     1.0000 0.96140  0.56690  0.10330  Biso   1.000  C
  H287     1.0000 0.94550  0.54260  0.06580  Biso   1.000  H
  H288     1.0000 0.00230  0.59420  0.10200  Biso   1.000  H
  N73      1.0000 0.91220  0.74137  0.03957  Biso   1.000  N
  N74      1.0000 0.89764  0.84414  0.04065  Biso   1.000  N
  N75      1.0000 0.96990  0.74767  0.14823  Biso   1.000  N
  N76      1.0000 0.97450  0.85149  0.14627  Biso   1.000  N
  N77      1.0000 0.83480  0.94014  0.05375  Biso   1.000  N
  N78      1.0000 0.74350  0.99260  0.07241  Biso   1.000  N
  N79      1.0000 0.91350  0.94849  0.15819  Biso   1.000  N
  N80      1.0000 0.81580  0.98651  0.17800  Biso   1.000  N
  N81      1.0000 0.62440  0.99184  0.09061  Biso   1.000  N
  N82      1.0000 0.53430  0.93305  0.10382  Biso   1.000  N
  N83      1.0000 0.69710  0.97545  0.19498  Biso   1.000  N
  N84      1.0000 0.60680  0.91711  0.20800  Biso   1.000  N
  N85      1.0000 0.48140  0.82940  0.10810  Biso   1.000  N
  N86      1.0000 0.48990  0.72591  0.10188  Biso   1.000  N
  N87      1.0000 0.54720  0.81812  0.21504  Biso   1.000  N
  N88      1.0000 0.53750  0.71451  0.21102  Biso   1.000  N
  N89      1.0000 0.55220  0.62930  0.08925  Biso   1.000  N
  N90      1.0000 0.64610  0.57480  0.07634  Biso   1.000  N
  N91      1.0000 0.60260  0.62091  0.19818  Biso   1.000  N
  N92      1.0000 0.70530  0.58394  0.18514  Biso   1.000  N
  N93      1.0000 0.76900  0.58366  0.06615  Biso   1.000  N
  N94      1.0000 0.85970  0.64085  0.05281  Biso   1.000  N
  N95      1.0000 0.82840  0.58882  0.17470  Biso   1.000  N
  N96      1.0000 0.91860  0.64640  0.16136  Biso   1.000  N
  O37      1.0000 0.81245  0.78656  0.96616  Biso   1.000  O
  O38      1.0000 0.71432  0.92511  0.99192  Biso   1.000  O
  O39      1.0000 0.54991  0.93502  0.00999  Biso   1.000  O
  O40      1.0000 0.49150  0.78648  0.02100  Biso   1.000  O
  O41      1.0000 0.58070  0.64315  0.00139  Biso   1.000  O
  O42      1.0000 0.74395  0.64494  0.98218  Biso   1.000  O
  O43      1.0000 0.98170  0.80297  0.23550  Biso   1.000  O
  O44      1.0000 0.89860  0.92591  0.24976  Biso   1.000  O
  O45      1.0000 0.72792  0.89536  0.26429  Biso   1.000  O
  O46      1.0000 0.63450  0.76004  0.28510  Biso   1.000  O
  O47      1.0000 0.71490  0.64629  0.26777  Biso   1.000  O
  O48      1.0000 0.88860  0.65996  0.24830  Biso   1.000  O
