data_image0
_cell_length_a       30.4471
_cell_length_b       30.4471
_cell_length_c       21.8623
_cell_angle_alpha    90
_cell_angle_beta     90
_cell_angle_gamma    90

_symmetry_space_group_name_H-M    "P 1"
_symmetry_int_tables_number       1

loop_
  _symmetry_equiv_pos_as_xyz
  'x, y, z'

loop_
  _atom_site_label
  _atom_site_occupancy
  _atom_site_fract_x
  _atom_site_fract_y
  _atom_site_fract_z
  _atom_site_thermal_displace_type
  _atom_site_B_iso_or_equiv
  _atom_site_type_symbol
  Co1      1.0000 0.31682  0.32781  0.60509  Biso   1.000  Co
  S1       1.0000 0.26894  0.28368  0.67713  Biso   1.000  S
  O1       1.0000 0.25871  0.33672  0.56450  Biso   1.000  O
  O2       1.0000 0.27798  0.42730  0.43390  Biso   1.000  O
  O3       1.0000 0.31290  0.38907  0.35920  Biso   1.000  O
  O4       1.0000 0.28232  0.58638  0.43450  Biso   1.000  O
  O5       1.0000 0.32042  0.62223  0.36020  Biso   1.000  O
  O6       1.0000 0.32080  0.26870  0.56200  Biso   1.000  O
  C1       1.0000 0.31090  0.23270  0.58940  Biso   1.000  C
  C2       1.0000 0.28510  0.23240  0.64330  Biso   1.000  C
  C3       1.0000 0.27540  0.19330  0.67330  Biso   1.000  C
  H1       1.0000 0.25830  0.19430  0.70960  Biso   1.000  H
  C4       1.0000 0.29000  0.15260  0.65180  Biso   1.000  C
  C5       1.0000 0.31370  0.15280  0.59750  Biso   1.000  C
  H2       1.0000 0.32320  0.12570  0.58060  Biso   1.000  H
  C6       1.0000 0.32380  0.19180  0.56710  Biso   1.000  C
  C7       1.0000 0.28240  0.11110  0.68820  Biso   1.000  C
  C8       1.0000 0.26660  0.11650  0.75240  Biso   1.000  C
  H3       1.0000 0.28750  0.13460  0.77540  Biso   1.000  H
  H4       1.0000 0.23780  0.13080  0.75230  Biso   1.000  H
  H5       1.0000 0.26410  0.08760  0.77180  Biso   1.000  H
  C9       1.0000 0.24760  0.08300  0.65860  Biso   1.000  C
  H6       1.0000 0.25530  0.07770  0.61570  Biso   1.000  H
  H7       1.0000 0.24550  0.05490  0.68020  Biso   1.000  H
  H8       1.0000 0.21920  0.09810  0.66070  Biso   1.000  H
  C10      1.0000 0.32350  0.08240  0.69090  Biso   1.000  C
  H9       1.0000 0.33490  0.07810  0.64940  Biso   1.000  H
  H10      1.0000 0.34580  0.09690  0.71600  Biso   1.000  H
  H11      1.0000 0.31610  0.05390  0.70880  Biso   1.000  H
  O7       1.0000 0.32400  0.26900  0.57000  Biso   1.000  O
  C11      1.0000 0.30220  0.23200  0.58800  Biso   1.000  C
  C12      1.0000 0.27290  0.23200  0.63400  Biso   1.000  C
  C13      1.0000 0.25240  0.19580  0.65160  Biso   1.000  C
  H12      1.0000 0.23310  0.19740  0.68570  Biso   1.000  H
  C14      1.0000 0.25750  0.15530  0.62260  Biso   1.000  C
  C15      1.0000 0.28870  0.15550  0.57750  Biso   1.000  C
  H13      1.0000 0.29590  0.12830  0.55870  Biso   1.000  H
  C16      1.0000 0.30960  0.19130  0.55800  Biso   1.000  C
  C17      1.0000 0.23420  0.11250  0.63460  Biso   1.000  C
  C18      1.0000 0.18930  0.12560  0.65800  Biso   1.000  C
  H14      1.0000 0.17210  0.09920  0.66700  Biso   1.000  H
  H15      1.0000 0.19260  0.14300  0.69560  Biso   1.000  H
  H16      1.0000 0.17410  0.14320  0.62710  Biso   1.000  H
  C19      1.0000 0.21580  0.09390  0.57500  Biso   1.000  C
  H17      1.0000 0.20070  0.06610  0.58340  Biso   1.000  H
  H18      1.0000 0.19490  0.11480  0.55720  Biso   1.000  H
  H19      1.0000 0.23990  0.08870  0.54610  Biso   1.000  H
  C20      1.0000 0.26730  0.07490  0.62900  Biso   1.000  C
  H20      1.0000 0.25250  0.04690  0.63710  Biso   1.000  H
  H21      1.0000 0.28000  0.07460  0.58820  Biso   1.000  H
  H22      1.0000 0.29080  0.07900  0.65950  Biso   1.000  H
  C21      1.0000 0.22080  0.32700  0.59030  Biso   1.000  C
  C22      1.0000 0.21810  0.30030  0.64240  Biso   1.000  C
  C23      1.0000 0.17850  0.29040  0.66840  Biso   1.000  C
  H23      1.0000 0.17780  0.27260  0.70410  Biso   1.000  H
  C24      1.0000 0.13880  0.30580  0.64400  Biso   1.000  C
  C25      1.0000 0.14080  0.33200  0.59300  Biso   1.000  C
  H24      1.0000 0.11440  0.34350  0.57620  Biso   1.000  H
  C26      1.0000 0.18110  0.34200  0.56540  Biso   1.000  C
  C27      1.0000 0.09510  0.29650  0.67490  Biso   1.000  C
  C28      1.0000 0.07170  0.33800  0.69340  Biso   1.000  C
  H25      1.0000 0.04290  0.33050  0.71070  Biso   1.000  H
  H26      1.0000 0.06770  0.35680  0.65750  Biso   1.000  H
  H27      1.0000 0.08920  0.35360  0.72420  Biso   1.000  H
  C29      1.0000 0.06380  0.27530  0.62680  Biso   1.000  C
  H28      1.0000 0.07550  0.24670  0.61420  Biso   1.000  H
  H29      1.0000 0.06160  0.29460  0.59100  Biso   1.000  H
  H30      1.0000 0.03460  0.27140  0.64480  Biso   1.000  H
  C30      1.0000 0.09810  0.26760  0.73060  Biso   1.000  C
  H31      1.0000 0.11310  0.28360  0.76350  Biso   1.000  H
  H32      1.0000 0.11460  0.24100  0.72060  Biso   1.000  H
  H33      1.0000 0.06840  0.25960  0.74400  Biso   1.000  H
  N1       1.0000 0.38540  0.50750  0.07880  Biso   1.000  N
  C31      1.0000 0.36190  0.47610  0.09940  Biso   1.000  C
  H34      1.0000 0.35590  0.45220  0.07280  Biso   1.000  H
  C32      1.0000 0.34470  0.47450  0.15710  Biso   1.000  C
  H35      1.0000 0.32640  0.45040  0.16790  Biso   1.000  H
  C33      1.0000 0.35250  0.50560  0.19900  Biso   1.000  C
  C34      1.0000 0.38230  0.53820  0.18090  Biso   1.000  C
  H36      1.0000 0.39310  0.55940  0.20900  Biso   1.000  H
  C35      1.0000 0.39530  0.53800  0.12060  Biso   1.000  C
  H37      1.0000 0.41300  0.56190  0.10740  Biso   1.000  H
  C36      1.0000 0.33480  0.50540  0.26300  Biso   1.000  C
  C37      1.0000 0.32440  0.46630  0.29300  Biso   1.000  C
  H38      1.0000 0.32830  0.43920  0.27220  Biso   1.000  H
  C38      1.0000 0.30870  0.46610  0.35160  Biso   1.000  C
  C39      1.0000 0.30090  0.50620  0.37990  Biso   1.000  C
  H39      1.0000 0.28790  0.50670  0.41940  Biso   1.000  H
  C40      1.0000 0.31160  0.54520  0.35180  Biso   1.000  C
  C41      1.0000 0.32750  0.54470  0.29430  Biso   1.000  C
  H40      1.0000 0.33400  0.57180  0.27470  Biso   1.000  H
  C42      1.0000 0.29930  0.42340  0.38380  Biso   1.000  C
  C43      1.0000 0.30450  0.58850  0.38530  Biso   1.000  C
  Co2      1.0000 0.68318  0.67219  0.60509  Biso   1.000  Co
  S2       1.0000 0.73106  0.71632  0.67713  Biso   1.000  S
  O8       1.0000 0.74129  0.66328  0.56450  Biso   1.000  O
  O9       1.0000 0.72202  0.57270  0.43390  Biso   1.000  O
  O10      1.0000 0.68710  0.61093  0.35920  Biso   1.000  O
  O11      1.0000 0.71768  0.41362  0.43450  Biso   1.000  O
  O12      1.0000 0.67958  0.37777  0.36020  Biso   1.000  O
  O13      1.0000 0.67920  0.73130  0.56200  Biso   1.000  O
  C44      1.0000 0.68910  0.76730  0.58940  Biso   1.000  C
  C45      1.0000 0.71490  0.76760  0.64330  Biso   1.000  C
  C46      1.0000 0.72460  0.80670  0.67330  Biso   1.000  C
  H41      1.0000 0.74170  0.80570  0.70960  Biso   1.000  H
  C47      1.0000 0.71000  0.84740  0.65180  Biso   1.000  C
  C48      1.0000 0.68630  0.84720  0.59750  Biso   1.000  C
  H42      1.0000 0.67680  0.87430  0.58060  Biso   1.000  H
  C49      1.0000 0.67620  0.80820  0.56710  Biso   1.000  C
  C50      1.0000 0.71760  0.88890  0.68820  Biso   1.000  C
  C51      1.0000 0.73340  0.88350  0.75240  Biso   1.000  C
  H43      1.0000 0.71250  0.86540  0.77540  Biso   1.000  H
  H44      1.0000 0.76220  0.86920  0.75230  Biso   1.000  H
  H45      1.0000 0.73590  0.91240  0.77180  Biso   1.000  H
  C52      1.0000 0.75240  0.91700  0.65860  Biso   1.000  C
  H46      1.0000 0.74470  0.92230  0.61570  Biso   1.000  H
  H47      1.0000 0.75450  0.94510  0.68020  Biso   1.000  H
  H48      1.0000 0.78080  0.90190  0.66070  Biso   1.000  H
  C53      1.0000 0.67650  0.91760  0.69090  Biso   1.000  C
  H49      1.0000 0.66510  0.92190  0.64940  Biso   1.000  H
  H50      1.0000 0.65420  0.90310  0.71600  Biso   1.000  H
  H51      1.0000 0.68390  0.94610  0.70880  Biso   1.000  H
  O14      1.0000 0.67600  0.73100  0.57000  Biso   1.000  O
  C54      1.0000 0.69780  0.76800  0.58800  Biso   1.000  C
  C55      1.0000 0.72710  0.76800  0.63400  Biso   1.000  C
  C56      1.0000 0.74760  0.80420  0.65160  Biso   1.000  C
  H52      1.0000 0.76690  0.80260  0.68570  Biso   1.000  H
  C57      1.0000 0.74250  0.84470  0.62260  Biso   1.000  C
  C58      1.0000 0.71130  0.84450  0.57750  Biso   1.000  C
  H53      1.0000 0.70410  0.87170  0.55870  Biso   1.000  H
  C59      1.0000 0.69040  0.80870  0.55800  Biso   1.000  C
  C60      1.0000 0.76580  0.88750  0.63460  Biso   1.000  C
  C61      1.0000 0.81070  0.87440  0.65800  Biso   1.000  C
  H54      1.0000 0.82790  0.90080  0.66700  Biso   1.000  H
  H55      1.0000 0.80740  0.85700  0.69560  Biso   1.000  H
  H56      1.0000 0.82590  0.85680  0.62710  Biso   1.000  H
  C62      1.0000 0.78420  0.90610  0.57500  Biso   1.000  C
  H57      1.0000 0.79930  0.93390  0.58340  Biso   1.000  H
  H58      1.0000 0.80510  0.88520  0.55720  Biso   1.000  H
  H59      1.0000 0.76010  0.91130  0.54610  Biso   1.000  H
  C63      1.0000 0.73270  0.92510  0.62900  Biso   1.000  C
  H60      1.0000 0.74750  0.95310  0.63710  Biso   1.000  H
  H61      1.0000 0.72000  0.92540  0.58820  Biso   1.000  H
  H62      1.0000 0.70920  0.92100  0.65950  Biso   1.000  H
  C64      1.0000 0.77920  0.67300  0.59030  Biso   1.000  C
  C65      1.0000 0.78190  0.69970  0.64240  Biso   1.000  C
  C66      1.0000 0.82150  0.70960  0.66840  Biso   1.000  C
  H63      1.0000 0.82220  0.72740  0.70410  Biso   1.000  H
  C67      1.0000 0.86120  0.69420  0.64400  Biso   1.000  C
  C68      1.0000 0.85920  0.66800  0.59300  Biso   1.000  C
  H64      1.0000 0.88560  0.65650  0.57620  Biso   1.000  H
  C69      1.0000 0.81890  0.65800  0.56540  Biso   1.000  C
  C70      1.0000 0.90490  0.70350  0.67490  Biso   1.000  C
  C71      1.0000 0.92830  0.66200  0.69340  Biso   1.000  C
  H65      1.0000 0.95710  0.66950  0.71070  Biso   1.000  H
  H66      1.0000 0.93230  0.64320  0.65750  Biso   1.000  H
  H67      1.0000 0.91080  0.64640  0.72420  Biso   1.000  H
  C72      1.0000 0.93620  0.72470  0.62680  Biso   1.000  C
  H68      1.0000 0.92450  0.75330  0.61420  Biso   1.000  H
  H69      1.0000 0.93840  0.70540  0.59100  Biso   1.000  H
  H70      1.0000 0.96540  0.72860  0.64480  Biso   1.000  H
  C73      1.0000 0.90190  0.73240  0.73060  Biso   1.000  C
  H71      1.0000 0.88690  0.71640  0.76350  Biso   1.000  H
  H72      1.0000 0.88540  0.75900  0.72060  Biso   1.000  H
  H73      1.0000 0.93160  0.74040  0.74400  Biso   1.000  H
  N2       1.0000 0.61460  0.49250  0.07880  Biso   1.000  N
  C74      1.0000 0.63810  0.52390  0.09940  Biso   1.000  C
  H74      1.0000 0.64410  0.54780  0.07280  Biso   1.000  H
  C75      1.0000 0.65530  0.52550  0.15710  Biso   1.000  C
  H75      1.0000 0.67360  0.54960  0.16790  Biso   1.000  H
  C76      1.0000 0.64750  0.49440  0.19900  Biso   1.000  C
  C77      1.0000 0.61770  0.46180  0.18090  Biso   1.000  C
  H76      1.0000 0.60690  0.44060  0.20900  Biso   1.000  H
  C78      1.0000 0.60470  0.46200  0.12060  Biso   1.000  C
  H77      1.0000 0.58700  0.43810  0.10740  Biso   1.000  H
  C79      1.0000 0.66520  0.49460  0.26300  Biso   1.000  C
  C80      1.0000 0.67560  0.53370  0.29300  Biso   1.000  C
  H78      1.0000 0.67170  0.56080  0.27220  Biso   1.000  H
  C81      1.0000 0.69130  0.53390  0.35160  Biso   1.000  C
  C82      1.0000 0.69910  0.49380  0.37990  Biso   1.000  C
  H79      1.0000 0.71210  0.49330  0.41940  Biso   1.000  H
  C83      1.0000 0.68840  0.45480  0.35180  Biso   1.000  C
  C84      1.0000 0.67250  0.45530  0.29430  Biso   1.000  C
  H80      1.0000 0.66600  0.42820  0.27470  Biso   1.000  H
  C85      1.0000 0.70070  0.57660  0.38380  Biso   1.000  C
  C86      1.0000 0.69550  0.41150  0.38530  Biso   1.000  C
  Co3      1.0000 0.67219  0.31682  0.60509  Biso   1.000  Co
  S3       1.0000 0.71632  0.26894  0.67713  Biso   1.000  S
  O15      1.0000 0.66328  0.25871  0.56450  Biso   1.000  O
  O16      1.0000 0.57270  0.27798  0.43390  Biso   1.000  O
  O17      1.0000 0.61093  0.31290  0.35920  Biso   1.000  O
  O18      1.0000 0.41362  0.28232  0.43450  Biso   1.000  O
  O19      1.0000 0.37777  0.32042  0.36020  Biso   1.000  O
  O20      1.0000 0.73130  0.32080  0.56200  Biso   1.000  O
  C87      1.0000 0.76730  0.31090  0.58940  Biso   1.000  C
  C88      1.0000 0.76760  0.28510  0.64330  Biso   1.000  C
  C89      1.0000 0.80670  0.27540  0.67330  Biso   1.000  C
  H81      1.0000 0.80570  0.25830  0.70960  Biso   1.000  H
  C90      1.0000 0.84740  0.29000  0.65180  Biso   1.000  C
  C91      1.0000 0.84720  0.31370  0.59750  Biso   1.000  C
  H82      1.0000 0.87430  0.32320  0.58060  Biso   1.000  H
  C92      1.0000 0.80820  0.32380  0.56710  Biso   1.000  C
  C93      1.0000 0.88890  0.28240  0.68820  Biso   1.000  C
  C94      1.0000 0.88350  0.26660  0.75240  Biso   1.000  C
  H83      1.0000 0.86540  0.28750  0.77540  Biso   1.000  H
  H84      1.0000 0.86920  0.23780  0.75230  Biso   1.000  H
  H85      1.0000 0.91240  0.26410  0.77180  Biso   1.000  H
  C95      1.0000 0.91700  0.24760  0.65860  Biso   1.000  C
  H86      1.0000 0.92230  0.25530  0.61570  Biso   1.000  H
  H87      1.0000 0.94510  0.24550  0.68020  Biso   1.000  H
  H88      1.0000 0.90190  0.21920  0.66070  Biso   1.000  H
  C96      1.0000 0.91760  0.32350  0.69090  Biso   1.000  C
  H89      1.0000 0.92190  0.33490  0.64940  Biso   1.000  H
  H90      1.0000 0.90310  0.34580  0.71600  Biso   1.000  H
  H91      1.0000 0.94610  0.31610  0.70880  Biso   1.000  H
  O21      1.0000 0.73100  0.32400  0.57000  Biso   1.000  O
  C97      1.0000 0.76800  0.30220  0.58800  Biso   1.000  C
  C98      1.0000 0.76800  0.27290  0.63400  Biso   1.000  C
  C99      1.0000 0.80420  0.25240  0.65160  Biso   1.000  C
  H92      1.0000 0.80260  0.23310  0.68570  Biso   1.000  H
  C100     1.0000 0.84470  0.25750  0.62260  Biso   1.000  C
  C101     1.0000 0.84450  0.28870  0.57750  Biso   1.000  C
  H93      1.0000 0.87170  0.29590  0.55870  Biso   1.000  H
  C102     1.0000 0.80870  0.30960  0.55800  Biso   1.000  C
  C103     1.0000 0.88750  0.23420  0.63460  Biso   1.000  C
  C104     1.0000 0.87440  0.18930  0.65800  Biso   1.000  C
  H94      1.0000 0.90080  0.17210  0.66700  Biso   1.000  H
  H95      1.0000 0.85700  0.19260  0.69560  Biso   1.000  H
  H96      1.0000 0.85680  0.17410  0.62710  Biso   1.000  H
  C105     1.0000 0.90610  0.21580  0.57500  Biso   1.000  C
  H97      1.0000 0.93390  0.20070  0.58340  Biso   1.000  H
  H98      1.0000 0.88520  0.19490  0.55720  Biso   1.000  H
  H99      1.0000 0.91130  0.23990  0.54610  Biso   1.000  H
  C106     1.0000 0.92510  0.26730  0.62900  Biso   1.000  C
  H100     1.0000 0.95310  0.25250  0.63710  Biso   1.000  H
  H101     1.0000 0.92540  0.28000  0.58820  Biso   1.000  H
  H102     1.0000 0.92100  0.29080  0.65950  Biso   1.000  H
  C107     1.0000 0.67300  0.22080  0.59030  Biso   1.000  C
  C108     1.0000 0.69970  0.21810  0.64240  Biso   1.000  C
  C109     1.0000 0.70960  0.17850  0.66840  Biso   1.000  C
  H103     1.0000 0.72740  0.17780  0.70410  Biso   1.000  H
  C110     1.0000 0.69420  0.13880  0.64400  Biso   1.000  C
  C111     1.0000 0.66800  0.14080  0.59300  Biso   1.000  C
  H104     1.0000 0.65650  0.11440  0.57620  Biso   1.000  H
  C112     1.0000 0.65800  0.18110  0.56540  Biso   1.000  C
  C113     1.0000 0.70350  0.09510  0.67490  Biso   1.000  C
  C114     1.0000 0.66200  0.07170  0.69340  Biso   1.000  C
  H105     1.0000 0.66950  0.04290  0.71070  Biso   1.000  H
  H106     1.0000 0.64320  0.06770  0.65750  Biso   1.000  H
  H107     1.0000 0.64640  0.08920  0.72420  Biso   1.000  H
  C115     1.0000 0.72470  0.06380  0.62680  Biso   1.000  C
  H108     1.0000 0.75330  0.07550  0.61420  Biso   1.000  H
  H109     1.0000 0.70540  0.06160  0.59100  Biso   1.000  H
  H110     1.0000 0.72860  0.03460  0.64480  Biso   1.000  H
  C116     1.0000 0.73240  0.09810  0.73060  Biso   1.000  C
  H111     1.0000 0.71640  0.11310  0.76350  Biso   1.000  H
  H112     1.0000 0.75900  0.11460  0.72060  Biso   1.000  H
  H113     1.0000 0.74040  0.06840  0.74400  Biso   1.000  H
  N3       1.0000 0.49250  0.38540  0.07880  Biso   1.000  N
  C117     1.0000 0.52390  0.36190  0.09940  Biso   1.000  C
  H114     1.0000 0.54780  0.35590  0.07280  Biso   1.000  H
  C118     1.0000 0.52550  0.34470  0.15710  Biso   1.000  C
  H115     1.0000 0.54960  0.32640  0.16790  Biso   1.000  H
  C119     1.0000 0.49440  0.35250  0.19900  Biso   1.000  C
  C120     1.0000 0.46180  0.38230  0.18090  Biso   1.000  C
  H116     1.0000 0.44060  0.39310  0.20900  Biso   1.000  H
  C121     1.0000 0.46200  0.39530  0.12060  Biso   1.000  C
  H117     1.0000 0.43810  0.41300  0.10740  Biso   1.000  H
  C122     1.0000 0.49460  0.33480  0.26300  Biso   1.000  C
  C123     1.0000 0.53370  0.32440  0.29300  Biso   1.000  C
  H118     1.0000 0.56080  0.32830  0.27220  Biso   1.000  H
  C124     1.0000 0.53390  0.30870  0.35160  Biso   1.000  C
  C125     1.0000 0.49380  0.30090  0.37990  Biso   1.000  C
  H119     1.0000 0.49330  0.28790  0.41940  Biso   1.000  H
  C126     1.0000 0.45480  0.31160  0.35180  Biso   1.000  C
  C127     1.0000 0.45530  0.32750  0.29430  Biso   1.000  C
  H120     1.0000 0.42820  0.33400  0.27470  Biso   1.000  H
  C128     1.0000 0.57660  0.29930  0.38380  Biso   1.000  C
  C129     1.0000 0.41150  0.30450  0.38530  Biso   1.000  C
  Co4      1.0000 0.32781  0.68318  0.60509  Biso   1.000  Co
  S4       1.0000 0.28368  0.73106  0.67713  Biso   1.000  S
  O22      1.0000 0.33672  0.74129  0.56450  Biso   1.000  O
  O23      1.0000 0.42730  0.72202  0.43390  Biso   1.000  O
  O24      1.0000 0.38907  0.68710  0.35920  Biso   1.000  O
  O25      1.0000 0.58638  0.71768  0.43450  Biso   1.000  O
  O26      1.0000 0.62223  0.67958  0.36020  Biso   1.000  O
  O27      1.0000 0.26870  0.67920  0.56200  Biso   1.000  O
  C130     1.0000 0.23270  0.68910  0.58940  Biso   1.000  C
  C131     1.0000 0.23240  0.71490  0.64330  Biso   1.000  C
  C132     1.0000 0.19330  0.72460  0.67330  Biso   1.000  C
  H121     1.0000 0.19430  0.74170  0.70960  Biso   1.000  H
  C133     1.0000 0.15260  0.71000  0.65180  Biso   1.000  C
  C134     1.0000 0.15280  0.68630  0.59750  Biso   1.000  C
  H122     1.0000 0.12570  0.67680  0.58060  Biso   1.000  H
  C135     1.0000 0.19180  0.67620  0.56710  Biso   1.000  C
  C136     1.0000 0.11110  0.71760  0.68820  Biso   1.000  C
  C137     1.0000 0.11650  0.73340  0.75240  Biso   1.000  C
  H123     1.0000 0.13460  0.71250  0.77540  Biso   1.000  H
  H124     1.0000 0.13080  0.76220  0.75230  Biso   1.000  H
  H125     1.0000 0.08760  0.73590  0.77180  Biso   1.000  H
  C138     1.0000 0.08300  0.75240  0.65860  Biso   1.000  C
  H126     1.0000 0.07770  0.74470  0.61570  Biso   1.000  H
  H127     1.0000 0.05490  0.75450  0.68020  Biso   1.000  H
  H128     1.0000 0.09810  0.78080  0.66070  Biso   1.000  H
  C139     1.0000 0.08240  0.67650  0.69090  Biso   1.000  C
  H129     1.0000 0.07810  0.66510  0.64940  Biso   1.000  H
  H130     1.0000 0.09690  0.65420  0.71600  Biso   1.000  H
  H131     1.0000 0.05390  0.68390  0.70880  Biso   1.000  H
  O28      1.0000 0.26900  0.67600  0.57000  Biso   1.000  O
  C140     1.0000 0.23200  0.69780  0.58800  Biso   1.000  C
  C141     1.0000 0.23200  0.72710  0.63400  Biso   1.000  C
  C142     1.0000 0.19580  0.74760  0.65160  Biso   1.000  C
  H132     1.0000 0.19740  0.76690  0.68570  Biso   1.000  H
  C143     1.0000 0.15530  0.74250  0.62260  Biso   1.000  C
  C144     1.0000 0.15550  0.71130  0.57750  Biso   1.000  C
  H133     1.0000 0.12830  0.70410  0.55870  Biso   1.000  H
  C145     1.0000 0.19130  0.69040  0.55800  Biso   1.000  C
  C146     1.0000 0.11250  0.76580  0.63460  Biso   1.000  C
  C147     1.0000 0.12560  0.81070  0.65800  Biso   1.000  C
  H134     1.0000 0.09920  0.82790  0.66700  Biso   1.000  H
  H135     1.0000 0.14300  0.80740  0.69560  Biso   1.000  H
  H136     1.0000 0.14320  0.82590  0.62710  Biso   1.000  H
  C148     1.0000 0.09390  0.78420  0.57500  Biso   1.000  C
  H137     1.0000 0.06610  0.79930  0.58340  Biso   1.000  H
  H138     1.0000 0.11480  0.80510  0.55720  Biso   1.000  H
  H139     1.0000 0.08870  0.76010  0.54610  Biso   1.000  H
  C149     1.0000 0.07490  0.73270  0.62900  Biso   1.000  C
  H140     1.0000 0.04690  0.74750  0.63710  Biso   1.000  H
  H141     1.0000 0.07460  0.72000  0.58820  Biso   1.000  H
  H142     1.0000 0.07900  0.70920  0.65950  Biso   1.000  H
  C150     1.0000 0.32700  0.77920  0.59030  Biso   1.000  C
  C151     1.0000 0.30030  0.78190  0.64240  Biso   1.000  C
  C152     1.0000 0.29040  0.82150  0.66840  Biso   1.000  C
  H143     1.0000 0.27260  0.82220  0.70410  Biso   1.000  H
  C153     1.0000 0.30580  0.86120  0.64400  Biso   1.000  C
  C154     1.0000 0.33200  0.85920  0.59300  Biso   1.000  C
  H144     1.0000 0.34350  0.88560  0.57620  Biso   1.000  H
  C155     1.0000 0.34200  0.81890  0.56540  Biso   1.000  C
  C156     1.0000 0.29650  0.90490  0.67490  Biso   1.000  C
  C157     1.0000 0.33800  0.92830  0.69340  Biso   1.000  C
  H145     1.0000 0.33050  0.95710  0.71070  Biso   1.000  H
  H146     1.0000 0.35680  0.93230  0.65750  Biso   1.000  H
  H147     1.0000 0.35360  0.91080  0.72420  Biso   1.000  H
  C158     1.0000 0.27530  0.93620  0.62680  Biso   1.000  C
  H148     1.0000 0.24670  0.92450  0.61420  Biso   1.000  H
  H149     1.0000 0.29460  0.93840  0.59100  Biso   1.000  H
  H150     1.0000 0.27140  0.96540  0.64480  Biso   1.000  H
  C159     1.0000 0.26760  0.90190  0.73060  Biso   1.000  C
  H151     1.0000 0.28360  0.88690  0.76350  Biso   1.000  H
  H152     1.0000 0.24100  0.88540  0.72060  Biso   1.000  H
  H153     1.0000 0.25960  0.93160  0.74400  Biso   1.000  H
  N4       1.0000 0.50750  0.61460  0.07880  Biso   1.000  N
  C160     1.0000 0.47610  0.63810  0.09940  Biso   1.000  C
  H154     1.0000 0.45220  0.64410  0.07280  Biso   1.000  H
  C161     1.0000 0.47450  0.65530  0.15710  Biso   1.000  C
  H155     1.0000 0.45040  0.67360  0.16790  Biso   1.000  H
  C162     1.0000 0.50560  0.64750  0.19900  Biso   1.000  C
  C163     1.0000 0.53820  0.61770  0.18090  Biso   1.000  C
  H156     1.0000 0.55940  0.60690  0.20900  Biso   1.000  H
  C164     1.0000 0.53800  0.60470  0.12060  Biso   1.000  C
  H157     1.0000 0.56190  0.58700  0.10740  Biso   1.000  H
  C165     1.0000 0.50540  0.66520  0.26300  Biso   1.000  C
  C166     1.0000 0.46630  0.67560  0.29300  Biso   1.000  C
  H158     1.0000 0.43920  0.67170  0.27220  Biso   1.000  H
  C167     1.0000 0.46610  0.69130  0.35160  Biso   1.000  C
  C168     1.0000 0.50620  0.69910  0.37990  Biso   1.000  C
  H159     1.0000 0.50670  0.71210  0.41940  Biso   1.000  H
  C169     1.0000 0.54520  0.68840  0.35180  Biso   1.000  C
  C170     1.0000 0.54470  0.67250  0.29430  Biso   1.000  C
  H160     1.0000 0.57180  0.66600  0.27470  Biso   1.000  H
  C171     1.0000 0.42340  0.70070  0.38380  Biso   1.000  C
  C172     1.0000 0.58850  0.69550  0.38530  Biso   1.000  C
  Co5      1.0000 0.68318  0.67219  0.39491  Biso   1.000  Co
  S5       1.0000 0.73106  0.71632  0.32287  Biso   1.000  S
  O29      1.0000 0.74129  0.66328  0.43550  Biso   1.000  O
  O30      1.0000 0.72202  0.57270  0.56610  Biso   1.000  O
  O31      1.0000 0.68710  0.61093  0.64080  Biso   1.000  O
  O32      1.0000 0.71768  0.41362  0.56550  Biso   1.000  O
  O33      1.0000 0.67958  0.37777  0.63980  Biso   1.000  O
  O34      1.0000 0.67920  0.73130  0.43800  Biso   1.000  O
  C173     1.0000 0.68910  0.76730  0.41060  Biso   1.000  C
  C174     1.0000 0.71490  0.76760  0.35670  Biso   1.000  C
  C175     1.0000 0.72460  0.80670  0.32670  Biso   1.000  C
  H161     1.0000 0.74170  0.80570  0.29040  Biso   1.000  H
  C176     1.0000 0.71000  0.84740  0.34820  Biso   1.000  C
  C177     1.0000 0.68630  0.84720  0.40250  Biso   1.000  C
  H162     1.0000 0.67680  0.87430  0.41940  Biso   1.000  H
  C178     1.0000 0.67620  0.80820  0.43290  Biso   1.000  C
  C179     1.0000 0.71760  0.88890  0.31180  Biso   1.000  C
  C180     1.0000 0.73340  0.88350  0.24760  Biso   1.000  C
  H163     1.0000 0.71250  0.86540  0.22460  Biso   1.000  H
  H164     1.0000 0.76220  0.86920  0.24770  Biso   1.000  H
  H165     1.0000 0.73590  0.91240  0.22820  Biso   1.000  H
  C181     1.0000 0.75240  0.91700  0.34140  Biso   1.000  C
  H166     1.0000 0.74470  0.92230  0.38430  Biso   1.000  H
  H167     1.0000 0.75450  0.94510  0.31980  Biso   1.000  H
  H168     1.0000 0.78080  0.90190  0.33930  Biso   1.000  H
  C182     1.0000 0.67650  0.91760  0.30910  Biso   1.000  C
  H169     1.0000 0.66510  0.92190  0.35060  Biso   1.000  H
  H170     1.0000 0.65420  0.90310  0.28400  Biso   1.000  H
  H171     1.0000 0.68390  0.94610  0.29120  Biso   1.000  H
  O35      1.0000 0.67600  0.73100  0.43000  Biso   1.000  O
  C183     1.0000 0.69780  0.76800  0.41200  Biso   1.000  C
  C184     1.0000 0.72710  0.76800  0.36600  Biso   1.000  C
  C185     1.0000 0.74760  0.80420  0.34840  Biso   1.000  C
  H172     1.0000 0.76690  0.80260  0.31430  Biso   1.000  H
  C186     1.0000 0.74250  0.84470  0.37740  Biso   1.000  C
  C187     1.0000 0.71130  0.84450  0.42250  Biso   1.000  C
  H173     1.0000 0.70410  0.87170  0.44130  Biso   1.000  H
  C188     1.0000 0.69040  0.80870  0.44200  Biso   1.000  C
  C189     1.0000 0.76580  0.88750  0.36540  Biso   1.000  C
  C190     1.0000 0.81070  0.87440  0.34200  Biso   1.000  C
  H174     1.0000 0.82790  0.90080  0.33300  Biso   1.000  H
  H175     1.0000 0.80740  0.85700  0.30440  Biso   1.000  H
  H176     1.0000 0.82590  0.85680  0.37290  Biso   1.000  H
  C191     1.0000 0.78420  0.90610  0.42500  Biso   1.000  C
  H177     1.0000 0.79930  0.93390  0.41660  Biso   1.000  H
  H178     1.0000 0.80510  0.88520  0.44280  Biso   1.000  H
  H179     1.0000 0.76010  0.91130  0.45390  Biso   1.000  H
  C192     1.0000 0.73270  0.92510  0.37100  Biso   1.000  C
  H180     1.0000 0.74750  0.95310  0.36290  Biso   1.000  H
  H181     1.0000 0.72000  0.92540  0.41180  Biso   1.000  H
  H182     1.0000 0.70920  0.92100  0.34050  Biso   1.000  H
  C193     1.0000 0.77920  0.67300  0.40970  Biso   1.000  C
  C194     1.0000 0.78190  0.69970  0.35760  Biso   1.000  C
  C195     1.0000 0.82150  0.70960  0.33160  Biso   1.000  C
  H183     1.0000 0.82220  0.72740  0.29590  Biso   1.000  H
  C196     1.0000 0.86120  0.69420  0.35600  Biso   1.000  C
  C197     1.0000 0.85920  0.66800  0.40700  Biso   1.000  C
  H184     1.0000 0.88560  0.65650  0.42380  Biso   1.000  H
  C198     1.0000 0.81890  0.65800  0.43460  Biso   1.000  C
  C199     1.0000 0.90490  0.70350  0.32510  Biso   1.000  C
  C200     1.0000 0.92830  0.66200  0.30660  Biso   1.000  C
  H185     1.0000 0.95710  0.66950  0.28930  Biso   1.000  H
  H186     1.0000 0.93230  0.64320  0.34250  Biso   1.000  H
  H187     1.0000 0.91080  0.64640  0.27580  Biso   1.000  H
  C201     1.0000 0.93620  0.72470  0.37320  Biso   1.000  C
  H188     1.0000 0.92450  0.75330  0.38580  Biso   1.000  H
  H189     1.0000 0.93840  0.70540  0.40900  Biso   1.000  H
  H190     1.0000 0.96540  0.72860  0.35520  Biso   1.000  H
  C202     1.0000 0.90190  0.73240  0.26940  Biso   1.000  C
  H191     1.0000 0.88690  0.71640  0.23650  Biso   1.000  H
  H192     1.0000 0.88540  0.75900  0.27940  Biso   1.000  H
  H193     1.0000 0.93160  0.74040  0.25600  Biso   1.000  H
  N5       1.0000 0.61460  0.49250  0.92120  Biso   1.000  N
  C203     1.0000 0.63810  0.52390  0.90060  Biso   1.000  C
  H194     1.0000 0.64410  0.54780  0.92720  Biso   1.000  H
  C204     1.0000 0.65530  0.52550  0.84290  Biso   1.000  C
  H195     1.0000 0.67360  0.54960  0.83210  Biso   1.000  H
  C205     1.0000 0.64750  0.49440  0.80100  Biso   1.000  C
  C206     1.0000 0.61770  0.46180  0.81910  Biso   1.000  C
  H196     1.0000 0.60690  0.44060  0.79100  Biso   1.000  H
  C207     1.0000 0.60470  0.46200  0.87940  Biso   1.000  C
  H197     1.0000 0.58700  0.43810  0.89260  Biso   1.000  H
  C208     1.0000 0.66520  0.49460  0.73700  Biso   1.000  C
  C209     1.0000 0.67560  0.53370  0.70700  Biso   1.000  C
  H198     1.0000 0.67170  0.56080  0.72780  Biso   1.000  H
  C210     1.0000 0.69130  0.53390  0.64840  Biso   1.000  C
  C211     1.0000 0.69910  0.49380  0.62010  Biso   1.000  C
  H199     1.0000 0.71210  0.49330  0.58060  Biso   1.000  H
  C212     1.0000 0.68840  0.45480  0.64820  Biso   1.000  C
  C213     1.0000 0.67250  0.45530  0.70570  Biso   1.000  C
  H200     1.0000 0.66600  0.42820  0.72530  Biso   1.000  H
  C214     1.0000 0.70070  0.57660  0.61620  Biso   1.000  C
  C215     1.0000 0.69550  0.41150  0.61470  Biso   1.000  C
  Co6      1.0000 0.31682  0.32781  0.39491  Biso   1.000  Co
  S6       1.0000 0.26894  0.28368  0.32287  Biso   1.000  S
  O36      1.0000 0.25871  0.33672  0.43550  Biso   1.000  O
  O37      1.0000 0.27798  0.42730  0.56610  Biso   1.000  O
  O38      1.0000 0.31290  0.38907  0.64080  Biso   1.000  O
  O39      1.0000 0.28232  0.58638  0.56550  Biso   1.000  O
  O40      1.0000 0.32042  0.62223  0.63980  Biso   1.000  O
  O41      1.0000 0.32080  0.26870  0.43800  Biso   1.000  O
  C216     1.0000 0.31090  0.23270  0.41060  Biso   1.000  C
  C217     1.0000 0.28510  0.23240  0.35670  Biso   1.000  C
  C218     1.0000 0.27540  0.19330  0.32670  Biso   1.000  C
  H201     1.0000 0.25830  0.19430  0.29040  Biso   1.000  H
  C219     1.0000 0.29000  0.15260  0.34820  Biso   1.000  C
  C220     1.0000 0.31370  0.15280  0.40250  Biso   1.000  C
  H202     1.0000 0.32320  0.12570  0.41940  Biso   1.000  H
  C221     1.0000 0.32380  0.19180  0.43290  Biso   1.000  C
  C222     1.0000 0.28240  0.11110  0.31180  Biso   1.000  C
  C223     1.0000 0.26660  0.11650  0.24760  Biso   1.000  C
  H203     1.0000 0.28750  0.13460  0.22460  Biso   1.000  H
  H204     1.0000 0.23780  0.13080  0.24770  Biso   1.000  H
  H205     1.0000 0.26410  0.08760  0.22820  Biso   1.000  H
  C224     1.0000 0.24760  0.08300  0.34140  Biso   1.000  C
  H206     1.0000 0.25530  0.07770  0.38430  Biso   1.000  H
  H207     1.0000 0.24550  0.05490  0.31980  Biso   1.000  H
  H208     1.0000 0.21920  0.09810  0.33930  Biso   1.000  H
  C225     1.0000 0.32350  0.08240  0.30910  Biso   1.000  C
  H209     1.0000 0.33490  0.07810  0.35060  Biso   1.000  H
  H210     1.0000 0.34580  0.09690  0.28400  Biso   1.000  H
  H211     1.0000 0.31610  0.05390  0.29120  Biso   1.000  H
  O42      1.0000 0.32400  0.26900  0.43000  Biso   1.000  O
  C226     1.0000 0.30220  0.23200  0.41200  Biso   1.000  C
  C227     1.0000 0.27290  0.23200  0.36600  Biso   1.000  C
  C228     1.0000 0.25240  0.19580  0.34840  Biso   1.000  C
  H212     1.0000 0.23310  0.19740  0.31430  Biso   1.000  H
  C229     1.0000 0.25750  0.15530  0.37740  Biso   1.000  C
  C230     1.0000 0.28870  0.15550  0.42250  Biso   1.000  C
  H213     1.0000 0.29590  0.12830  0.44130  Biso   1.000  H
  C231     1.0000 0.30960  0.19130  0.44200  Biso   1.000  C
  C232     1.0000 0.23420  0.11250  0.36540  Biso   1.000  C
  C233     1.0000 0.18930  0.12560  0.34200  Biso   1.000  C
  H214     1.0000 0.17210  0.09920  0.33300  Biso   1.000  H
  H215     1.0000 0.19260  0.14300  0.30440  Biso   1.000  H
  H216     1.0000 0.17410  0.14320  0.37290  Biso   1.000  H
  C234     1.0000 0.21580  0.09390  0.42500  Biso   1.000  C
  H217     1.0000 0.20070  0.06610  0.41660  Biso   1.000  H
  H218     1.0000 0.19490  0.11480  0.44280  Biso   1.000  H
  H219     1.0000 0.23990  0.08870  0.45390  Biso   1.000  H
  C235     1.0000 0.26730  0.07490  0.37100  Biso   1.000  C
  H220     1.0000 0.25250  0.04690  0.36290  Biso   1.000  H
  H221     1.0000 0.28000  0.07460  0.41180  Biso   1.000  H
  H222     1.0000 0.29080  0.07900  0.34050  Biso   1.000  H
  C236     1.0000 0.22080  0.32700  0.40970  Biso   1.000  C
  C237     1.0000 0.21810  0.30030  0.35760  Biso   1.000  C
  C238     1.0000 0.17850  0.29040  0.33160  Biso   1.000  C
  H223     1.0000 0.17780  0.27260  0.29590  Biso   1.000  H
  C239     1.0000 0.13880  0.30580  0.35600  Biso   1.000  C
  C240     1.0000 0.14080  0.33200  0.40700  Biso   1.000  C
  H224     1.0000 0.11440  0.34350  0.42380  Biso   1.000  H
  C241     1.0000 0.18110  0.34200  0.43460  Biso   1.000  C
  C242     1.0000 0.09510  0.29650  0.32510  Biso   1.000  C
  C243     1.0000 0.07170  0.33800  0.30660  Biso   1.000  C
  H225     1.0000 0.04290  0.33050  0.28930  Biso   1.000  H
  H226     1.0000 0.06770  0.35680  0.34250  Biso   1.000  H
  H227     1.0000 0.08920  0.35360  0.27580  Biso   1.000  H
  C244     1.0000 0.06380  0.27530  0.37320  Biso   1.000  C
  H228     1.0000 0.07550  0.24670  0.38580  Biso   1.000  H
  H229     1.0000 0.06160  0.29460  0.40900  Biso   1.000  H
  H230     1.0000 0.03460  0.27140  0.35520  Biso   1.000  H
  C245     1.0000 0.09810  0.26760  0.26940  Biso   1.000  C
  H231     1.0000 0.11310  0.28360  0.23650  Biso   1.000  H
  H232     1.0000 0.11460  0.24100  0.27940  Biso   1.000  H
  H233     1.0000 0.06840  0.25960  0.25600  Biso   1.000  H
  N6       1.0000 0.38540  0.50750  0.92120  Biso   1.000  N
  C246     1.0000 0.36190  0.47610  0.90060  Biso   1.000  C
  H234     1.0000 0.35590  0.45220  0.92720  Biso   1.000  H
  C247     1.0000 0.34470  0.47450  0.84290  Biso   1.000  C
  H235     1.0000 0.32640  0.45040  0.83210  Biso   1.000  H
  C248     1.0000 0.35250  0.50560  0.80100  Biso   1.000  C
  C249     1.0000 0.38230  0.53820  0.81910  Biso   1.000  C
  H236     1.0000 0.39310  0.55940  0.79100  Biso   1.000  H
  C250     1.0000 0.39530  0.53800  0.87940  Biso   1.000  C
  H237     1.0000 0.41300  0.56190  0.89260  Biso   1.000  H
  C251     1.0000 0.33480  0.50540  0.73700  Biso   1.000  C
  C252     1.0000 0.32440  0.46630  0.70700  Biso   1.000  C
  H238     1.0000 0.32830  0.43920  0.72780  Biso   1.000  H
  C253     1.0000 0.30870  0.46610  0.64840  Biso   1.000  C
  C254     1.0000 0.30090  0.50620  0.62010  Biso   1.000  C
  H239     1.0000 0.28790  0.50670  0.58060  Biso   1.000  H
  C255     1.0000 0.31160  0.54520  0.64820  Biso   1.000  C
  C256     1.0000 0.32750  0.54470  0.70570  Biso   1.000  C
  H240     1.0000 0.33400  0.57180  0.72530  Biso   1.000  H
  C257     1.0000 0.29930  0.42340  0.61620  Biso   1.000  C
  C258     1.0000 0.30450  0.58850  0.61470  Biso   1.000  C
  Co7      1.0000 0.32781  0.68318  0.39491  Biso   1.000  Co
  S7       1.0000 0.28368  0.73106  0.32287  Biso   1.000  S
  O43      1.0000 0.33672  0.74129  0.43550  Biso   1.000  O
  O44      1.0000 0.42730  0.72202  0.56610  Biso   1.000  O
  O45      1.0000 0.38907  0.68710  0.64080  Biso   1.000  O
  O46      1.0000 0.58638  0.71768  0.56550  Biso   1.000  O
  O47      1.0000 0.62223  0.67958  0.63980  Biso   1.000  O
  O48      1.0000 0.26870  0.67920  0.43800  Biso   1.000  O
  C259     1.0000 0.23270  0.68910  0.41060  Biso   1.000  C
  C260     1.0000 0.23240  0.71490  0.35670  Biso   1.000  C
  C261     1.0000 0.19330  0.72460  0.32670  Biso   1.000  C
  H241     1.0000 0.19430  0.74170  0.29040  Biso   1.000  H
  C262     1.0000 0.15260  0.71000  0.34820  Biso   1.000  C
  C263     1.0000 0.15280  0.68630  0.40250  Biso   1.000  C
  H242     1.0000 0.12570  0.67680  0.41940  Biso   1.000  H
  C264     1.0000 0.19180  0.67620  0.43290  Biso   1.000  C
  C265     1.0000 0.11110  0.71760  0.31180  Biso   1.000  C
  C266     1.0000 0.11650  0.73340  0.24760  Biso   1.000  C
  H243     1.0000 0.13460  0.71250  0.22460  Biso   1.000  H
  H244     1.0000 0.13080  0.76220  0.24770  Biso   1.000  H
  H245     1.0000 0.08760  0.73590  0.22820  Biso   1.000  H
  C267     1.0000 0.08300  0.75240  0.34140  Biso   1.000  C
  H246     1.0000 0.07770  0.74470  0.38430  Biso   1.000  H
  H247     1.0000 0.05490  0.75450  0.31980  Biso   1.000  H
  H248     1.0000 0.09810  0.78080  0.33930  Biso   1.000  H
  C268     1.0000 0.08240  0.67650  0.30910  Biso   1.000  C
  H249     1.0000 0.07810  0.66510  0.35060  Biso   1.000  H
  H250     1.0000 0.09690  0.65420  0.28400  Biso   1.000  H
  H251     1.0000 0.05390  0.68390  0.29120  Biso   1.000  H
  O49      1.0000 0.26900  0.67600  0.43000  Biso   1.000  O
  C269     1.0000 0.23200  0.69780  0.41200  Biso   1.000  C
  C270     1.0000 0.23200  0.72710  0.36600  Biso   1.000  C
  C271     1.0000 0.19580  0.74760  0.34840  Biso   1.000  C
  H252     1.0000 0.19740  0.76690  0.31430  Biso   1.000  H
  C272     1.0000 0.15530  0.74250  0.37740  Biso   1.000  C
  C273     1.0000 0.15550  0.71130  0.42250  Biso   1.000  C
  H253     1.0000 0.12830  0.70410  0.44130  Biso   1.000  H
  C274     1.0000 0.19130  0.69040  0.44200  Biso   1.000  C
  C275     1.0000 0.11250  0.76580  0.36540  Biso   1.000  C
  C276     1.0000 0.12560  0.81070  0.34200  Biso   1.000  C
  H254     1.0000 0.09920  0.82790  0.33300  Biso   1.000  H
  H255     1.0000 0.14300  0.80740  0.30440  Biso   1.000  H
  H256     1.0000 0.14320  0.82590  0.37290  Biso   1.000  H
  C277     1.0000 0.09390  0.78420  0.42500  Biso   1.000  C
  H257     1.0000 0.06610  0.79930  0.41660  Biso   1.000  H
  H258     1.0000 0.11480  0.80510  0.44280  Biso   1.000  H
  H259     1.0000 0.08870  0.76010  0.45390  Biso   1.000  H
  C278     1.0000 0.07490  0.73270  0.37100  Biso   1.000  C
  H260     1.0000 0.04690  0.74750  0.36290  Biso   1.000  H
  H261     1.0000 0.07460  0.72000  0.41180  Biso   1.000  H
  H262     1.0000 0.07900  0.70920  0.34050  Biso   1.000  H
  C279     1.0000 0.32700  0.77920  0.40970  Biso   1.000  C
  C280     1.0000 0.30030  0.78190  0.35760  Biso   1.000  C
  C281     1.0000 0.29040  0.82150  0.33160  Biso   1.000  C
  H263     1.0000 0.27260  0.82220  0.29590  Biso   1.000  H
  C282     1.0000 0.30580  0.86120  0.35600  Biso   1.000  C
  C283     1.0000 0.33200  0.85920  0.40700  Biso   1.000  C
  H264     1.0000 0.34350  0.88560  0.42380  Biso   1.000  H
  C284     1.0000 0.34200  0.81890  0.43460  Biso   1.000  C
  C285     1.0000 0.29650  0.90490  0.32510  Biso   1.000  C
  C286     1.0000 0.33800  0.92830  0.30660  Biso   1.000  C
  H265     1.0000 0.33050  0.95710  0.28930  Biso   1.000  H
  H266     1.0000 0.35680  0.93230  0.34250  Biso   1.000  H
  H267     1.0000 0.35360  0.91080  0.27580  Biso   1.000  H
  C287     1.0000 0.27530  0.93620  0.37320  Biso   1.000  C
  H268     1.0000 0.24670  0.92450  0.38580  Biso   1.000  H
  H269     1.0000 0.29460  0.93840  0.40900  Biso   1.000  H
  H270     1.0000 0.27140  0.96540  0.35520  Biso   1.000  H
  C288     1.0000 0.26760  0.90190  0.26940  Biso   1.000  C
  H271     1.0000 0.28360  0.88690  0.23650  Biso   1.000  H
  H272     1.0000 0.24100  0.88540  0.27940  Biso   1.000  H
  H273     1.0000 0.25960  0.93160  0.25600  Biso   1.000  H
  N7       1.0000 0.50750  0.61460  0.92120  Biso   1.000  N
  C289     1.0000 0.47610  0.63810  0.90060  Biso   1.000  C
  H274     1.0000 0.45220  0.64410  0.92720  Biso   1.000  H
  C290     1.0000 0.47450  0.65530  0.84290  Biso   1.000  C
  H275     1.0000 0.45040  0.67360  0.83210  Biso   1.000  H
  C291     1.0000 0.50560  0.64750  0.80100  Biso   1.000  C
  C292     1.0000 0.53820  0.61770  0.81910  Biso   1.000  C
  H276     1.0000 0.55940  0.60690  0.79100  Biso   1.000  H
  C293     1.0000 0.53800  0.60470  0.87940  Biso   1.000  C
  H277     1.0000 0.56190  0.58700  0.89260  Biso   1.000  H
  C294     1.0000 0.50540  0.66520  0.73700  Biso   1.000  C
  C295     1.0000 0.46630  0.67560  0.70700  Biso   1.000  C
  H278     1.0000 0.43920  0.67170  0.72780  Biso   1.000  H
  C296     1.0000 0.46610  0.69130  0.64840  Biso   1.000  C
  C297     1.0000 0.50620  0.69910  0.62010  Biso   1.000  C
  H279     1.0000 0.50670  0.71210  0.58060  Biso   1.000  H
  C298     1.0000 0.54520  0.68840  0.64820  Biso   1.000  C
  C299     1.0000 0.54470  0.67250  0.70570  Biso   1.000  C
  H280     1.0000 0.57180  0.66600  0.72530  Biso   1.000  H
  C300     1.0000 0.42340  0.70070  0.61620  Biso   1.000  C
  C301     1.0000 0.58850  0.69550  0.61470  Biso   1.000  C
  Co8      1.0000 0.67219  0.31682  0.39491  Biso   1.000  Co
  S8       1.0000 0.71632  0.26894  0.32287  Biso   1.000  S
  O50      1.0000 0.66328  0.25871  0.43550  Biso   1.000  O
  O51      1.0000 0.57270  0.27798  0.56610  Biso   1.000  O
  O52      1.0000 0.61093  0.31290  0.64080  Biso   1.000  O
  O53      1.0000 0.41362  0.28232  0.56550  Biso   1.000  O
  O54      1.0000 0.37777  0.32042  0.63980  Biso   1.000  O
  O55      1.0000 0.73130  0.32080  0.43800  Biso   1.000  O
  C302     1.0000 0.76730  0.31090  0.41060  Biso   1.000  C
  C303     1.0000 0.76760  0.28510  0.35670  Biso   1.000  C
  C304     1.0000 0.80670  0.27540  0.32670  Biso   1.000  C
  H281     1.0000 0.80570  0.25830  0.29040  Biso   1.000  H
  C305     1.0000 0.84740  0.29000  0.34820  Biso   1.000  C
  C306     1.0000 0.84720  0.31370  0.40250  Biso   1.000  C
  H282     1.0000 0.87430  0.32320  0.41940  Biso   1.000  H
  C307     1.0000 0.80820  0.32380  0.43290  Biso   1.000  C
  C308     1.0000 0.88890  0.28240  0.31180  Biso   1.000  C
  C309     1.0000 0.88350  0.26660  0.24760  Biso   1.000  C
  H283     1.0000 0.86540  0.28750  0.22460  Biso   1.000  H
  H284     1.0000 0.86920  0.23780  0.24770  Biso   1.000  H
  H285     1.0000 0.91240  0.26410  0.22820  Biso   1.000  H
  C310     1.0000 0.91700  0.24760  0.34140  Biso   1.000  C
  H286     1.0000 0.92230  0.25530  0.38430  Biso   1.000  H
  H287     1.0000 0.94510  0.24550  0.31980  Biso   1.000  H
  H288     1.0000 0.90190  0.21920  0.33930  Biso   1.000  H
  C311     1.0000 0.91760  0.32350  0.30910  Biso   1.000  C
  H289     1.0000 0.92190  0.33490  0.35060  Biso   1.000  H
  H290     1.0000 0.90310  0.34580  0.28400  Biso   1.000  H
  H291     1.0000 0.94610  0.31610  0.29120  Biso   1.000  H
  O56      1.0000 0.73100  0.32400  0.43000  Biso   1.000  O
  C312     1.0000 0.76800  0.30220  0.41200  Biso   1.000  C
  C313     1.0000 0.76800  0.27290  0.36600  Biso   1.000  C
  C314     1.0000 0.80420  0.25240  0.34840  Biso   1.000  C
  H292     1.0000 0.80260  0.23310  0.31430  Biso   1.000  H
  C315     1.0000 0.84470  0.25750  0.37740  Biso   1.000  C
  C316     1.0000 0.84450  0.28870  0.42250  Biso   1.000  C
  H293     1.0000 0.87170  0.29590  0.44130  Biso   1.000  H
  C317     1.0000 0.80870  0.30960  0.44200  Biso   1.000  C
  C318     1.0000 0.88750  0.23420  0.36540  Biso   1.000  C
  C319     1.0000 0.87440  0.18930  0.34200  Biso   1.000  C
  H294     1.0000 0.90080  0.17210  0.33300  Biso   1.000  H
  H295     1.0000 0.85700  0.19260  0.30440  Biso   1.000  H
  H296     1.0000 0.85680  0.17410  0.37290  Biso   1.000  H
  C320     1.0000 0.90610  0.21580  0.42500  Biso   1.000  C
  H297     1.0000 0.93390  0.20070  0.41660  Biso   1.000  H
  H298     1.0000 0.88520  0.19490  0.44280  Biso   1.000  H
  H299     1.0000 0.91130  0.23990  0.45390  Biso   1.000  H
  C321     1.0000 0.92510  0.26730  0.37100  Biso   1.000  C
  H300     1.0000 0.95310  0.25250  0.36290  Biso   1.000  H
  H301     1.0000 0.92540  0.28000  0.41180  Biso   1.000  H
  H302     1.0000 0.92100  0.29080  0.34050  Biso   1.000  H
  C322     1.0000 0.67300  0.22080  0.40970  Biso   1.000  C
  C323     1.0000 0.69970  0.21810  0.35760  Biso   1.000  C
  C324     1.0000 0.70960  0.17850  0.33160  Biso   1.000  C
  H303     1.0000 0.72740  0.17780  0.29590  Biso   1.000  H
  C325     1.0000 0.69420  0.13880  0.35600  Biso   1.000  C
  C326     1.0000 0.66800  0.14080  0.40700  Biso   1.000  C
  H304     1.0000 0.65650  0.11440  0.42380  Biso   1.000  H
  C327     1.0000 0.65800  0.18110  0.43460  Biso   1.000  C
  C328     1.0000 0.70350  0.09510  0.32510  Biso   1.000  C
  C329     1.0000 0.66200  0.07170  0.30660  Biso   1.000  C
  H305     1.0000 0.66950  0.04290  0.28930  Biso   1.000  H
  H306     1.0000 0.64320  0.06770  0.34250  Biso   1.000  H
  H307     1.0000 0.64640  0.08920  0.27580  Biso   1.000  H
  C330     1.0000 0.72470  0.06380  0.37320  Biso   1.000  C
  H308     1.0000 0.75330  0.07550  0.38580  Biso   1.000  H
  H309     1.0000 0.70540  0.06160  0.40900  Biso   1.000  H
  H310     1.0000 0.72860  0.03460  0.35520  Biso   1.000  H
  C331     1.0000 0.73240  0.09810  0.26940  Biso   1.000  C
  H311     1.0000 0.71640  0.11310  0.23650  Biso   1.000  H
  H312     1.0000 0.75900  0.11460  0.27940  Biso   1.000  H
  H313     1.0000 0.74040  0.06840  0.25600  Biso   1.000  H
  N8       1.0000 0.49250  0.38540  0.92120  Biso   1.000  N
  C332     1.0000 0.52390  0.36190  0.90060  Biso   1.000  C
  H314     1.0000 0.54780  0.35590  0.92720  Biso   1.000  H
  C333     1.0000 0.52550  0.34470  0.84290  Biso   1.000  C
  H315     1.0000 0.54960  0.32640  0.83210  Biso   1.000  H
  C334     1.0000 0.49440  0.35250  0.80100  Biso   1.000  C
  C335     1.0000 0.46180  0.38230  0.81910  Biso   1.000  C
  H316     1.0000 0.44060  0.39310  0.79100  Biso   1.000  H
  C336     1.0000 0.46200  0.39530  0.87940  Biso   1.000  C
  H317     1.0000 0.43810  0.41300  0.89260  Biso   1.000  H
  C337     1.0000 0.49460  0.33480  0.73700  Biso   1.000  C
  C338     1.0000 0.53370  0.32440  0.70700  Biso   1.000  C
  H318     1.0000 0.56080  0.32830  0.72780  Biso   1.000  H
  C339     1.0000 0.53390  0.30870  0.64840  Biso   1.000  C
  C340     1.0000 0.49380  0.30090  0.62010  Biso   1.000  C
  H319     1.0000 0.49330  0.28790  0.58060  Biso   1.000  H
  C341     1.0000 0.45480  0.31160  0.64820  Biso   1.000  C
  C342     1.0000 0.45530  0.32750  0.70570  Biso   1.000  C
  H320     1.0000 0.42820  0.33400  0.72530  Biso   1.000  H
  C343     1.0000 0.57660  0.29930  0.61620  Biso   1.000  C
  C344     1.0000 0.41150  0.30450  0.61470  Biso   1.000  C
  Co9      1.0000 0.36818  0.27322  0.50000  Biso   1.000  Co
  Co10     1.0000 0.26612  0.38275  0.50000  Biso   1.000  Co
  S9       1.0000 0.35576  0.18951  0.50000  Biso   1.000  S
  S10      1.0000 0.18232  0.37793  0.50000  Biso   1.000  S
  Co11     1.0000 0.63182  0.72678  0.50000  Biso   1.000  Co
  Co12     1.0000 0.73388  0.61725  0.50000  Biso   1.000  Co
  S11      1.0000 0.64424  0.81049  0.50000  Biso   1.000  S
  S12      1.0000 0.81768  0.62207  0.50000  Biso   1.000  S
  Co13     1.0000 0.72678  0.36818  0.50000  Biso   1.000  Co
  Co14     1.0000 0.61725  0.26612  0.50000  Biso   1.000  Co
  S13      1.0000 0.81049  0.35576  0.50000  Biso   1.000  S
  S14      1.0000 0.62207  0.18232  0.50000  Biso   1.000  S
  Co15     1.0000 0.27322  0.63182  0.50000  Biso   1.000  Co
  Co16     1.0000 0.38275  0.73388  0.50000  Biso   1.000  Co
  S15      1.0000 0.18951  0.64424  0.50000  Biso   1.000  S
  S16      1.0000 0.37793  0.81768  0.50000  Biso   1.000  S
  Co17     1.0000 0.42727  0.50503  0.00000  Biso   1.000  Co
  O57      1.0000 0.43190  0.44140  0.00000  Biso   1.000  O
  H321     1.0000 0.41330  0.41840  0.00000  Biso   1.000  H
  Co18     1.0000 0.57273  0.49497  0.00000  Biso   1.000  Co
  O58      1.0000 0.56810  0.55860  0.00000  Biso   1.000  O
  H322     1.0000 0.58670  0.58160  0.00000  Biso   1.000  H
  Co19     1.0000 0.49497  0.42727  0.00000  Biso   1.000  Co
  O59      1.0000 0.55860  0.43190  0.00000  Biso   1.000  O
  H323     1.0000 0.58160  0.41330  0.00000  Biso   1.000  H
  Co20     1.0000 0.50503  0.57273  0.00000  Biso   1.000  Co
  O60      1.0000 0.44140  0.56810  0.00000  Biso   1.000  O
  H324     1.0000 0.41840  0.58670  0.00000  Biso   1.000  H
  Co21     1.0000 0.18318  0.82781  0.89491  Biso   1.000  Co
  S17      1.0000 0.23106  0.78368  0.82287  Biso   1.000  S
  O61      1.0000 0.24129  0.83672  0.93550  Biso   1.000  O
  O62      1.0000 0.22202  0.92730  0.06610  Biso   1.000  O
  O63      1.0000 0.18710  0.88907  0.14080  Biso   1.000  O
  O64      1.0000 0.21768  0.08638  0.06550  Biso   1.000  O
  O65      1.0000 0.17958  0.12223  0.13980  Biso   1.000  O
  O66      1.0000 0.17920  0.76870  0.93800  Biso   1.000  O
  C345     1.0000 0.18910  0.73270  0.91060  Biso   1.000  C
  C346     1.0000 0.21490  0.73240  0.85670  Biso   1.000  C
  C347     1.0000 0.22460  0.69330  0.82670  Biso   1.000  C
  H325     1.0000 0.24170  0.69430  0.79040  Biso   1.000  H
  C348     1.0000 0.21000  0.65260  0.84820  Biso   1.000  C
  C349     1.0000 0.18630  0.65280  0.90250  Biso   1.000  C
  H326     1.0000 0.17680  0.62570  0.91940  Biso   1.000  H
  C350     1.0000 0.17620  0.69180  0.93290  Biso   1.000  C
  C351     1.0000 0.21760  0.61110  0.81180  Biso   1.000  C
  C352     1.0000 0.23340  0.61650  0.74760  Biso   1.000  C
  H327     1.0000 0.21250  0.63460  0.72460  Biso   1.000  H
  H328     1.0000 0.26220  0.63080  0.74770  Biso   1.000  H
  H329     1.0000 0.23590  0.58760  0.72820  Biso   1.000  H
  C353     1.0000 0.25240  0.58300  0.84140  Biso   1.000  C
  H330     1.0000 0.24470  0.57770  0.88430  Biso   1.000  H
  H331     1.0000 0.25450  0.55490  0.81980  Biso   1.000  H
  H332     1.0000 0.28080  0.59810  0.83930  Biso   1.000  H
  C354     1.0000 0.17650  0.58240  0.80910  Biso   1.000  C
  H333     1.0000 0.16510  0.57810  0.85060  Biso   1.000  H
  H334     1.0000 0.15420  0.59690  0.78400  Biso   1.000  H
  H335     1.0000 0.18390  0.55390  0.79120  Biso   1.000  H
  O67      1.0000 0.17600  0.76900  0.93000  Biso   1.000  O
  C355     1.0000 0.19780  0.73200  0.91200  Biso   1.000  C
  C356     1.0000 0.22710  0.73200  0.86600  Biso   1.000  C
  C357     1.0000 0.24760  0.69580  0.84840  Biso   1.000  C
  H336     1.0000 0.26690  0.69740  0.81430  Biso   1.000  H
  C358     1.0000 0.24250  0.65530  0.87740  Biso   1.000  C
  C359     1.0000 0.21130  0.65550  0.92250  Biso   1.000  C
  H337     1.0000 0.20410  0.62830  0.94130  Biso   1.000  H
  C360     1.0000 0.19040  0.69130  0.94200  Biso   1.000  C
  C361     1.0000 0.26580  0.61250  0.86540  Biso   1.000  C
  C362     1.0000 0.31070  0.62560  0.84200  Biso   1.000  C
  H338     1.0000 0.32790  0.59920  0.83300  Biso   1.000  H
  H339     1.0000 0.30740  0.64300  0.80440  Biso   1.000  H
  H340     1.0000 0.32590  0.64320  0.87290  Biso   1.000  H
  C363     1.0000 0.28420  0.59390  0.92500  Biso   1.000  C
  H341     1.0000 0.29930  0.56610  0.91660  Biso   1.000  H
  H342     1.0000 0.30510  0.61480  0.94280  Biso   1.000  H
  H343     1.0000 0.26010  0.58870  0.95390  Biso   1.000  H
  C364     1.0000 0.23270  0.57490  0.87100  Biso   1.000  C
  H344     1.0000 0.24750  0.54690  0.86290  Biso   1.000  H
  H345     1.0000 0.22000  0.57460  0.91180  Biso   1.000  H
  H346     1.0000 0.20920  0.57900  0.84050  Biso   1.000  H
  C365     1.0000 0.27920  0.82700  0.90970  Biso   1.000  C
  C366     1.0000 0.28190  0.80030  0.85760  Biso   1.000  C
  C367     1.0000 0.32150  0.79040  0.83160  Biso   1.000  C
  H347     1.0000 0.32220  0.77260  0.79590  Biso   1.000  H
  C368     1.0000 0.36120  0.80580  0.85600  Biso   1.000  C
  C369     1.0000 0.35920  0.83200  0.90700  Biso   1.000  C
  H348     1.0000 0.38560  0.84350  0.92380  Biso   1.000  H
  C370     1.0000 0.31890  0.84200  0.93460  Biso   1.000  C
  C371     1.0000 0.40490  0.79650  0.82510  Biso   1.000  C
  C372     1.0000 0.42830  0.83800  0.80660  Biso   1.000  C
  H349     1.0000 0.45710  0.83050  0.78930  Biso   1.000  H
  H350     1.0000 0.43230  0.85680  0.84250  Biso   1.000  H
  H351     1.0000 0.41080  0.85360  0.77580  Biso   1.000  H
  C373     1.0000 0.43620  0.77530  0.87320  Biso   1.000  C
  H352     1.0000 0.42450  0.74670  0.88580  Biso   1.000  H
  H353     1.0000 0.43840  0.79460  0.90900  Biso   1.000  H
  H354     1.0000 0.46540  0.77140  0.85520  Biso   1.000  H
  C374     1.0000 0.40190  0.76760  0.76940  Biso   1.000  C
  H355     1.0000 0.38690  0.78360  0.73650  Biso   1.000  H
  H356     1.0000 0.38540  0.74100  0.77940  Biso   1.000  H
  H357     1.0000 0.43160  0.75960  0.75600  Biso   1.000  H
  N9       1.0000 0.11460  0.00750  0.42120  Biso   1.000  N
  C375     1.0000 0.13810  0.97610  0.40060  Biso   1.000  C
  H358     1.0000 0.14410  0.95220  0.42720  Biso   1.000  H
  C376     1.0000 0.15530  0.97450  0.34290  Biso   1.000  C
  H359     1.0000 0.17360  0.95040  0.33210  Biso   1.000  H
  C377     1.0000 0.14750  0.00560  0.30100  Biso   1.000  C
  C378     1.0000 0.11770  0.03820  0.31910  Biso   1.000  C
  H360     1.0000 0.10690  0.05940  0.29100  Biso   1.000  H
  C379     1.0000 0.10470  0.03800  0.37940  Biso   1.000  C
  H361     1.0000 0.08700  0.06190  0.39260  Biso   1.000  H
  C380     1.0000 0.16520  0.00540  0.23700  Biso   1.000  C
  C381     1.0000 0.17560  0.96630  0.20700  Biso   1.000  C
  H362     1.0000 0.17170  0.93920  0.22780  Biso   1.000  H
  C382     1.0000 0.19130  0.96610  0.14840  Biso   1.000  C
  C383     1.0000 0.19910  0.00620  0.12010  Biso   1.000  C
  H363     1.0000 0.21210  0.00670  0.08060  Biso   1.000  H
  C384     1.0000 0.18840  0.04520  0.14820  Biso   1.000  C
  C385     1.0000 0.17250  0.04470  0.20570  Biso   1.000  C
  H364     1.0000 0.16600  0.07180  0.22530  Biso   1.000  H
  C386     1.0000 0.20070  0.92340  0.11620  Biso   1.000  C
  C387     1.0000 0.19550  0.08850  0.11470  Biso   1.000  C
  Co22     1.0000 0.81682  0.17219  0.89491  Biso   1.000  Co
  S18      1.0000 0.76894  0.21632  0.82287  Biso   1.000  S
  O68      1.0000 0.75871  0.16328  0.93550  Biso   1.000  O
  O69      1.0000 0.77798  0.07270  0.06610  Biso   1.000  O
  O70      1.0000 0.81290  0.11093  0.14080  Biso   1.000  O
  O71      1.0000 0.78232  0.91362  0.06550  Biso   1.000  O
  O72      1.0000 0.82042  0.87777  0.13980  Biso   1.000  O
  O73      1.0000 0.82080  0.23130  0.93800  Biso   1.000  O
  C388     1.0000 0.81090  0.26730  0.91060  Biso   1.000  C
  C389     1.0000 0.78510  0.26760  0.85670  Biso   1.000  C
  C390     1.0000 0.77540  0.30670  0.82670  Biso   1.000  C
  H365     1.0000 0.75830  0.30570  0.79040  Biso   1.000  H
  C391     1.0000 0.79000  0.34740  0.84820  Biso   1.000  C
  C392     1.0000 0.81370  0.34720  0.90250  Biso   1.000  C
  H366     1.0000 0.82320  0.37430  0.91940  Biso   1.000  H
  C393     1.0000 0.82380  0.30820  0.93290  Biso   1.000  C
  C394     1.0000 0.78240  0.38890  0.81180  Biso   1.000  C
  C395     1.0000 0.76660  0.38350  0.74760  Biso   1.000  C
  H367     1.0000 0.78750  0.36540  0.72460  Biso   1.000  H
  H368     1.0000 0.73780  0.36920  0.74770  Biso   1.000  H
  H369     1.0000 0.76410  0.41240  0.72820  Biso   1.000  H
  C396     1.0000 0.74760  0.41700  0.84140  Biso   1.000  C
  H370     1.0000 0.75530  0.42230  0.88430  Biso   1.000  H
  H371     1.0000 0.74550  0.44510  0.81980  Biso   1.000  H
  H372     1.0000 0.71920  0.40190  0.83930  Biso   1.000  H
  C397     1.0000 0.82350  0.41760  0.80910  Biso   1.000  C
  H373     1.0000 0.83490  0.42190  0.85060  Biso   1.000  H
  H374     1.0000 0.84580  0.40310  0.78400  Biso   1.000  H
  H375     1.0000 0.81610  0.44610  0.79120  Biso   1.000  H
  O74      1.0000 0.82400  0.23100  0.93000  Biso   1.000  O
  C398     1.0000 0.80220  0.26800  0.91200  Biso   1.000  C
  C399     1.0000 0.77290  0.26800  0.86600  Biso   1.000  C
  C400     1.0000 0.75240  0.30420  0.84840  Biso   1.000  C
  H376     1.0000 0.73310  0.30260  0.81430  Biso   1.000  H
  C401     1.0000 0.75750  0.34470  0.87740  Biso   1.000  C
  C402     1.0000 0.78870  0.34450  0.92250  Biso   1.000  C
  H377     1.0000 0.79590  0.37170  0.94130  Biso   1.000  H
  C403     1.0000 0.80960  0.30870  0.94200  Biso   1.000  C
  C404     1.0000 0.73420  0.38750  0.86540  Biso   1.000  C
  C405     1.0000 0.68930  0.37440  0.84200  Biso   1.000  C
  H378     1.0000 0.67210  0.40080  0.83300  Biso   1.000  H
  H379     1.0000 0.69260  0.35700  0.80440  Biso   1.000  H
  H380     1.0000 0.67410  0.35680  0.87290  Biso   1.000  H
  C406     1.0000 0.71580  0.40610  0.92500  Biso   1.000  C
  H381     1.0000 0.70070  0.43390  0.91660  Biso   1.000  H
  H382     1.0000 0.69490  0.38520  0.94280  Biso   1.000  H
  H383     1.0000 0.73990  0.41130  0.95390  Biso   1.000  H
  C407     1.0000 0.76730  0.42510  0.87100  Biso   1.000  C
  H384     1.0000 0.75250  0.45310  0.86290  Biso   1.000  H
  H385     1.0000 0.78000  0.42540  0.91180  Biso   1.000  H
  H386     1.0000 0.79080  0.42100  0.84050  Biso   1.000  H
  C408     1.0000 0.72080  0.17300  0.90970  Biso   1.000  C
  C409     1.0000 0.71810  0.19970  0.85760  Biso   1.000  C
  C410     1.0000 0.67850  0.20960  0.83160  Biso   1.000  C
  H387     1.0000 0.67780  0.22740  0.79590  Biso   1.000  H
  C411     1.0000 0.63880  0.19420  0.85600  Biso   1.000  C
  C412     1.0000 0.64080  0.16800  0.90700  Biso   1.000  C
  H388     1.0000 0.61440  0.15650  0.92380  Biso   1.000  H
  C413     1.0000 0.68110  0.15800  0.93460  Biso   1.000  C
  C414     1.0000 0.59510  0.20350  0.82510  Biso   1.000  C
  C415     1.0000 0.57170  0.16200  0.80660  Biso   1.000  C
  H389     1.0000 0.54290  0.16950  0.78930  Biso   1.000  H
  H390     1.0000 0.56770  0.14320  0.84250  Biso   1.000  H
  H391     1.0000 0.58920  0.14640  0.77580  Biso   1.000  H
  C416     1.0000 0.56380  0.22470  0.87320  Biso   1.000  C
  H392     1.0000 0.57550  0.25330  0.88580  Biso   1.000  H
  H393     1.0000 0.56160  0.20540  0.90900  Biso   1.000  H
  H394     1.0000 0.53460  0.22860  0.85520  Biso   1.000  H
  C417     1.0000 0.59810  0.23240  0.76940  Biso   1.000  C
  H395     1.0000 0.61310  0.21640  0.73650  Biso   1.000  H
  H396     1.0000 0.61460  0.25900  0.77940  Biso   1.000  H
  H397     1.0000 0.56840  0.24040  0.75600  Biso   1.000  H
  N10      1.0000 0.88540  0.99250  0.42120  Biso   1.000  N
  C418     1.0000 0.86190  0.02390  0.40060  Biso   1.000  C
  H398     1.0000 0.85590  0.04780  0.42720  Biso   1.000  H
  C419     1.0000 0.84470  0.02550  0.34290  Biso   1.000  C
  H399     1.0000 0.82640  0.04960  0.33210  Biso   1.000  H
  C420     1.0000 0.85250  0.99440  0.30100  Biso   1.000  C
  C421     1.0000 0.88230  0.96180  0.31910  Biso   1.000  C
  H400     1.0000 0.89310  0.94060  0.29100  Biso   1.000  H
  C422     1.0000 0.89530  0.96200  0.37940  Biso   1.000  C
  H401     1.0000 0.91300  0.93810  0.39260  Biso   1.000  H
  C423     1.0000 0.83480  0.99460  0.23700  Biso   1.000  C
  C424     1.0000 0.82440  0.03370  0.20700  Biso   1.000  C
  H402     1.0000 0.82830  0.06080  0.22780  Biso   1.000  H
  C425     1.0000 0.80870  0.03390  0.14840  Biso   1.000  C
  C426     1.0000 0.80090  0.99380  0.12010  Biso   1.000  C
  H403     1.0000 0.78790  0.99330  0.08060  Biso   1.000  H
  C427     1.0000 0.81160  0.95480  0.14820  Biso   1.000  C
  C428     1.0000 0.82750  0.95530  0.20570  Biso   1.000  C
  H404     1.0000 0.83400  0.92820  0.22530  Biso   1.000  H
  C429     1.0000 0.79930  0.07660  0.11620  Biso   1.000  C
  C430     1.0000 0.80450  0.91150  0.11470  Biso   1.000  C
  Co23     1.0000 0.82781  0.81682  0.89491  Biso   1.000  Co
  S19      1.0000 0.78368  0.76894  0.82287  Biso   1.000  S
  O75      1.0000 0.83672  0.75871  0.93550  Biso   1.000  O
  O76      1.0000 0.92730  0.77798  0.06610  Biso   1.000  O
  O77      1.0000 0.88907  0.81290  0.14080  Biso   1.000  O
  O78      1.0000 0.08638  0.78232  0.06550  Biso   1.000  O
  O79      1.0000 0.12223  0.82042  0.13980  Biso   1.000  O
  O80      1.0000 0.76870  0.82080  0.93800  Biso   1.000  O
  C431     1.0000 0.73270  0.81090  0.91060  Biso   1.000  C
  C432     1.0000 0.73240  0.78510  0.85670  Biso   1.000  C
  C433     1.0000 0.69330  0.77540  0.82670  Biso   1.000  C
  H405     1.0000 0.69430  0.75830  0.79040  Biso   1.000  H
  C434     1.0000 0.65260  0.79000  0.84820  Biso   1.000  C
  C435     1.0000 0.65280  0.81370  0.90250  Biso   1.000  C
  H406     1.0000 0.62570  0.82320  0.91940  Biso   1.000  H
  C436     1.0000 0.69180  0.82380  0.93290  Biso   1.000  C
  C437     1.0000 0.61110  0.78240  0.81180  Biso   1.000  C
  C438     1.0000 0.61650  0.76660  0.74760  Biso   1.000  C
  H407     1.0000 0.63460  0.78750  0.72460  Biso   1.000  H
  H408     1.0000 0.63080  0.73780  0.74770  Biso   1.000  H
  H409     1.0000 0.58760  0.76410  0.72820  Biso   1.000  H
  C439     1.0000 0.58300  0.74760  0.84140  Biso   1.000  C
  H410     1.0000 0.57770  0.75530  0.88430  Biso   1.000  H
  H411     1.0000 0.55490  0.74550  0.81980  Biso   1.000  H
  H412     1.0000 0.59810  0.71920  0.83930  Biso   1.000  H
  C440     1.0000 0.58240  0.82350  0.80910  Biso   1.000  C
  H413     1.0000 0.57810  0.83490  0.85060  Biso   1.000  H
  H414     1.0000 0.59690  0.84580  0.78400  Biso   1.000  H
  H415     1.0000 0.55390  0.81610  0.79120  Biso   1.000  H
  O81      1.0000 0.76900  0.82400  0.93000  Biso   1.000  O
  C441     1.0000 0.73200  0.80220  0.91200  Biso   1.000  C
  C442     1.0000 0.73200  0.77290  0.86600  Biso   1.000  C
  C443     1.0000 0.69580  0.75240  0.84840  Biso   1.000  C
  H416     1.0000 0.69740  0.73310  0.81430  Biso   1.000  H
  C444     1.0000 0.65530  0.75750  0.87740  Biso   1.000  C
  C445     1.0000 0.65550  0.78870  0.92250  Biso   1.000  C
  H417     1.0000 0.62830  0.79590  0.94130  Biso   1.000  H
  C446     1.0000 0.69130  0.80960  0.94200  Biso   1.000  C
  C447     1.0000 0.61250  0.73420  0.86540  Biso   1.000  C
  C448     1.0000 0.62560  0.68930  0.84200  Biso   1.000  C
  H418     1.0000 0.59920  0.67210  0.83300  Biso   1.000  H
  H419     1.0000 0.64300  0.69260  0.80440  Biso   1.000  H
  H420     1.0000 0.64320  0.67410  0.87290  Biso   1.000  H
  C449     1.0000 0.59390  0.71580  0.92500  Biso   1.000  C
  H421     1.0000 0.56610  0.70070  0.91660  Biso   1.000  H
  H422     1.0000 0.61480  0.69490  0.94280  Biso   1.000  H
  H423     1.0000 0.58870  0.73990  0.95390  Biso   1.000  H
  C450     1.0000 0.57490  0.76730  0.87100  Biso   1.000  C
  H424     1.0000 0.54690  0.75250  0.86290  Biso   1.000  H
  H425     1.0000 0.57460  0.78000  0.91180  Biso   1.000  H
  H426     1.0000 0.57900  0.79080  0.84050  Biso   1.000  H
  C451     1.0000 0.82700  0.72080  0.90970  Biso   1.000  C
  C452     1.0000 0.80030  0.71810  0.85760  Biso   1.000  C
  C453     1.0000 0.79040  0.67850  0.83160  Biso   1.000  C
  H427     1.0000 0.77260  0.67780  0.79590  Biso   1.000  H
  C454     1.0000 0.80580  0.63880  0.85600  Biso   1.000  C
  C455     1.0000 0.83200  0.64080  0.90700  Biso   1.000  C
  H428     1.0000 0.84350  0.61440  0.92380  Biso   1.000  H
  C456     1.0000 0.84200  0.68110  0.93460  Biso   1.000  C
  C457     1.0000 0.79650  0.59510  0.82510  Biso   1.000  C
  C458     1.0000 0.83800  0.57170  0.80660  Biso   1.000  C
  H429     1.0000 0.83050  0.54290  0.78930  Biso   1.000  H
  H430     1.0000 0.85680  0.56770  0.84250  Biso   1.000  H
  H431     1.0000 0.85360  0.58920  0.77580  Biso   1.000  H
  C459     1.0000 0.77530  0.56380  0.87320  Biso   1.000  C
  H432     1.0000 0.74670  0.57550  0.88580  Biso   1.000  H
  H433     1.0000 0.79460  0.56160  0.90900  Biso   1.000  H
  H434     1.0000 0.77140  0.53460  0.85520  Biso   1.000  H
  C460     1.0000 0.76760  0.59810  0.76940  Biso   1.000  C
  H435     1.0000 0.78360  0.61310  0.73650  Biso   1.000  H
  H436     1.0000 0.74100  0.61460  0.77940  Biso   1.000  H
  H437     1.0000 0.75960  0.56840  0.75600  Biso   1.000  H
  N11      1.0000 0.00750  0.88540  0.42120  Biso   1.000  N
  C461     1.0000 0.97610  0.86190  0.40060  Biso   1.000  C
  H438     1.0000 0.95220  0.85590  0.42720  Biso   1.000  H
  C462     1.0000 0.97450  0.84470  0.34290  Biso   1.000  C
  H439     1.0000 0.95040  0.82640  0.33210  Biso   1.000  H
  C463     1.0000 0.00560  0.85250  0.30100  Biso   1.000  C
  C464     1.0000 0.03820  0.88230  0.31910  Biso   1.000  C
  H440     1.0000 0.05940  0.89310  0.29100  Biso   1.000  H
  C465     1.0000 0.03800  0.89530  0.37940  Biso   1.000  C
  H441     1.0000 0.06190  0.91300  0.39260  Biso   1.000  H
  C466     1.0000 0.00540  0.83480  0.23700  Biso   1.000  C
  C467     1.0000 0.96630  0.82440  0.20700  Biso   1.000  C
  H442     1.0000 0.93920  0.82830  0.22780  Biso   1.000  H
  C468     1.0000 0.96610  0.80870  0.14840  Biso   1.000  C
  C469     1.0000 0.00620  0.80090  0.12010  Biso   1.000  C
  H443     1.0000 0.00670  0.78790  0.08060  Biso   1.000  H
  C470     1.0000 0.04520  0.81160  0.14820  Biso   1.000  C
  C471     1.0000 0.04470  0.82750  0.20570  Biso   1.000  C
  H444     1.0000 0.07180  0.83400  0.22530  Biso   1.000  H
  C472     1.0000 0.92340  0.79930  0.11620  Biso   1.000  C
  C473     1.0000 0.08850  0.80450  0.11470  Biso   1.000  C
  Co24     1.0000 0.17219  0.18318  0.89491  Biso   1.000  Co
  S20      1.0000 0.21632  0.23106  0.82287  Biso   1.000  S
  O82      1.0000 0.16328  0.24129  0.93550  Biso   1.000  O
  O83      1.0000 0.07270  0.22202  0.06610  Biso   1.000  O
  O84      1.0000 0.11093  0.18710  0.14080  Biso   1.000  O
  O85      1.0000 0.91362  0.21768  0.06550  Biso   1.000  O
  O86      1.0000 0.87777  0.17958  0.13980  Biso   1.000  O
  O87      1.0000 0.23130  0.17920  0.93800  Biso   1.000  O
  C474     1.0000 0.26730  0.18910  0.91060  Biso   1.000  C
  C475     1.0000 0.26760  0.21490  0.85670  Biso   1.000  C
  C476     1.0000 0.30670  0.22460  0.82670  Biso   1.000  C
  H445     1.0000 0.30570  0.24170  0.79040  Biso   1.000  H
  C477     1.0000 0.34740  0.21000  0.84820  Biso   1.000  C
  C478     1.0000 0.34720  0.18630  0.90250  Biso   1.000  C
  H446     1.0000 0.37430  0.17680  0.91940  Biso   1.000  H
  C479     1.0000 0.30820  0.17620  0.93290  Biso   1.000  C
  C480     1.0000 0.38890  0.21760  0.81180  Biso   1.000  C
  C481     1.0000 0.38350  0.23340  0.74760  Biso   1.000  C
  H447     1.0000 0.36540  0.21250  0.72460  Biso   1.000  H
  H448     1.0000 0.36920  0.26220  0.74770  Biso   1.000  H
  H449     1.0000 0.41240  0.23590  0.72820  Biso   1.000  H
  C482     1.0000 0.41700  0.25240  0.84140  Biso   1.000  C
  H450     1.0000 0.42230  0.24470  0.88430  Biso   1.000  H
  H451     1.0000 0.44510  0.25450  0.81980  Biso   1.000  H
  H452     1.0000 0.40190  0.28080  0.83930  Biso   1.000  H
  C483     1.0000 0.41760  0.17650  0.80910  Biso   1.000  C
  H453     1.0000 0.42190  0.16510  0.85060  Biso   1.000  H
  H454     1.0000 0.40310  0.15420  0.78400  Biso   1.000  H
  H455     1.0000 0.44610  0.18390  0.79120  Biso   1.000  H
  O88      1.0000 0.23100  0.17600  0.93000  Biso   1.000  O
  C484     1.0000 0.26800  0.19780  0.91200  Biso   1.000  C
  C485     1.0000 0.26800  0.22710  0.86600  Biso   1.000  C
  C486     1.0000 0.30420  0.24760  0.84840  Biso   1.000  C
  H456     1.0000 0.30260  0.26690  0.81430  Biso   1.000  H
  C487     1.0000 0.34470  0.24250  0.87740  Biso   1.000  C
  C488     1.0000 0.34450  0.21130  0.92250  Biso   1.000  C
  H457     1.0000 0.37170  0.20410  0.94130  Biso   1.000  H
  C489     1.0000 0.30870  0.19040  0.94200  Biso   1.000  C
  C490     1.0000 0.38750  0.26580  0.86540  Biso   1.000  C
  C491     1.0000 0.37440  0.31070  0.84200  Biso   1.000  C
  H458     1.0000 0.40080  0.32790  0.83300  Biso   1.000  H
  H459     1.0000 0.35700  0.30740  0.80440  Biso   1.000  H
  H460     1.0000 0.35680  0.32590  0.87290  Biso   1.000  H
  C492     1.0000 0.40610  0.28420  0.92500  Biso   1.000  C
  H461     1.0000 0.43390  0.29930  0.91660  Biso   1.000  H
  H462     1.0000 0.38520  0.30510  0.94280  Biso   1.000  H
  H463     1.0000 0.41130  0.26010  0.95390  Biso   1.000  H
  C493     1.0000 0.42510  0.23270  0.87100  Biso   1.000  C
  H464     1.0000 0.45310  0.24750  0.86290  Biso   1.000  H
  H465     1.0000 0.42540  0.22000  0.91180  Biso   1.000  H
  H466     1.0000 0.42100  0.20920  0.84050  Biso   1.000  H
  C494     1.0000 0.17300  0.27920  0.90970  Biso   1.000  C
  C495     1.0000 0.19970  0.28190  0.85760  Biso   1.000  C
  C496     1.0000 0.20960  0.32150  0.83160  Biso   1.000  C
  H467     1.0000 0.22740  0.32220  0.79590  Biso   1.000  H
  C497     1.0000 0.19420  0.36120  0.85600  Biso   1.000  C
  C498     1.0000 0.16800  0.35920  0.90700  Biso   1.000  C
  H468     1.0000 0.15650  0.38560  0.92380  Biso   1.000  H
  C499     1.0000 0.15800  0.31890  0.93460  Biso   1.000  C
  C500     1.0000 0.20350  0.40490  0.82510  Biso   1.000  C
  C501     1.0000 0.16200  0.42830  0.80660  Biso   1.000  C
  H469     1.0000 0.16950  0.45710  0.78930  Biso   1.000  H
  H470     1.0000 0.14320  0.43230  0.84250  Biso   1.000  H
  H471     1.0000 0.14640  0.41080  0.77580  Biso   1.000  H
  C502     1.0000 0.22470  0.43620  0.87320  Biso   1.000  C
  H472     1.0000 0.25330  0.42450  0.88580  Biso   1.000  H
  H473     1.0000 0.20540  0.43840  0.90900  Biso   1.000  H
  H474     1.0000 0.22860  0.46540  0.85520  Biso   1.000  H
  C503     1.0000 0.23240  0.40190  0.76940  Biso   1.000  C
  H475     1.0000 0.21640  0.38690  0.73650  Biso   1.000  H
  H476     1.0000 0.25900  0.38540  0.77940  Biso   1.000  H
  H477     1.0000 0.24040  0.43160  0.75600  Biso   1.000  H
  N12      1.0000 0.99250  0.11460  0.42120  Biso   1.000  N
  C504     1.0000 0.02390  0.13810  0.40060  Biso   1.000  C
  H478     1.0000 0.04780  0.14410  0.42720  Biso   1.000  H
  C505     1.0000 0.02550  0.15530  0.34290  Biso   1.000  C
  H479     1.0000 0.04960  0.17360  0.33210  Biso   1.000  H
  C506     1.0000 0.99440  0.14750  0.30100  Biso   1.000  C
  C507     1.0000 0.96180  0.11770  0.31910  Biso   1.000  C
  H480     1.0000 0.94060  0.10690  0.29100  Biso   1.000  H
  C508     1.0000 0.96200  0.10470  0.37940  Biso   1.000  C
  H481     1.0000 0.93810  0.08700  0.39260  Biso   1.000  H
  C509     1.0000 0.99460  0.16520  0.23700  Biso   1.000  C
  C510     1.0000 0.03370  0.17560  0.20700  Biso   1.000  C
  H482     1.0000 0.06080  0.17170  0.22780  Biso   1.000  H
  C511     1.0000 0.03390  0.19130  0.14840  Biso   1.000  C
  C512     1.0000 0.99380  0.19910  0.12010  Biso   1.000  C
  H483     1.0000 0.99330  0.21210  0.08060  Biso   1.000  H
  C513     1.0000 0.95480  0.18840  0.14820  Biso   1.000  C
  C514     1.0000 0.95530  0.17250  0.20570  Biso   1.000  C
  H484     1.0000 0.92820  0.16600  0.22530  Biso   1.000  H
  C515     1.0000 0.07660  0.20070  0.11620  Biso   1.000  C
  C516     1.0000 0.91150  0.19550  0.11470  Biso   1.000  C
  Co25     1.0000 0.81682  0.17219  0.10509  Biso   1.000  Co
  S21      1.0000 0.76894  0.21632  0.17713  Biso   1.000  S
  O89      1.0000 0.75871  0.16328  0.06450  Biso   1.000  O
  O90      1.0000 0.77798  0.07270  0.93390  Biso   1.000  O
  O91      1.0000 0.81290  0.11093  0.85920  Biso   1.000  O
  O92      1.0000 0.78232  0.91362  0.93450  Biso   1.000  O
  O93      1.0000 0.82042  0.87777  0.86020  Biso   1.000  O
  O94      1.0000 0.82080  0.23130  0.06200  Biso   1.000  O
  C517     1.0000 0.81090  0.26730  0.08940  Biso   1.000  C
  C518     1.0000 0.78510  0.26760  0.14330  Biso   1.000  C
  C519     1.0000 0.77540  0.30670  0.17330  Biso   1.000  C
  H485     1.0000 0.75830  0.30570  0.20960  Biso   1.000  H
  C520     1.0000 0.79000  0.34740  0.15180  Biso   1.000  C
  C521     1.0000 0.81370  0.34720  0.09750  Biso   1.000  C
  H486     1.0000 0.82320  0.37430  0.08060  Biso   1.000  H
  C522     1.0000 0.82380  0.30820  0.06710  Biso   1.000  C
  C523     1.0000 0.78240  0.38890  0.18820  Biso   1.000  C
  C524     1.0000 0.76660  0.38350  0.25240  Biso   1.000  C
  H487     1.0000 0.78750  0.36540  0.27540  Biso   1.000  H
  H488     1.0000 0.73780  0.36920  0.25230  Biso   1.000  H
  H489     1.0000 0.76410  0.41240  0.27180  Biso   1.000  H
  C525     1.0000 0.74760  0.41700  0.15860  Biso   1.000  C
  H490     1.0000 0.75530  0.42230  0.11570  Biso   1.000  H
  H491     1.0000 0.74550  0.44510  0.18020  Biso   1.000  H
  H492     1.0000 0.71920  0.40190  0.16070  Biso   1.000  H
  C526     1.0000 0.82350  0.41760  0.19090  Biso   1.000  C
  H493     1.0000 0.83490  0.42190  0.14940  Biso   1.000  H
  H494     1.0000 0.84580  0.40310  0.21600  Biso   1.000  H
  H495     1.0000 0.81610  0.44610  0.20880  Biso   1.000  H
  O95      1.0000 0.82400  0.23100  0.07000  Biso   1.000  O
  C527     1.0000 0.80220  0.26800  0.08800  Biso   1.000  C
  C528     1.0000 0.77290  0.26800  0.13400  Biso   1.000  C
  C529     1.0000 0.75240  0.30420  0.15160  Biso   1.000  C
  H496     1.0000 0.73310  0.30260  0.18570  Biso   1.000  H
  C530     1.0000 0.75750  0.34470  0.12260  Biso   1.000  C
  C531     1.0000 0.78870  0.34450  0.07750  Biso   1.000  C
  H497     1.0000 0.79590  0.37170  0.05870  Biso   1.000  H
  C532     1.0000 0.80960  0.30870  0.05800  Biso   1.000  C
  C533     1.0000 0.73420  0.38750  0.13460  Biso   1.000  C
  C534     1.0000 0.68930  0.37440  0.15800  Biso   1.000  C
  H498     1.0000 0.67210  0.40080  0.16700  Biso   1.000  H
  H499     1.0000 0.69260  0.35700  0.19560  Biso   1.000  H
  H500     1.0000 0.67410  0.35680  0.12710  Biso   1.000  H
  C535     1.0000 0.71580  0.40610  0.07500  Biso   1.000  C
  H501     1.0000 0.70070  0.43390  0.08340  Biso   1.000  H
  H502     1.0000 0.69490  0.38520  0.05720  Biso   1.000  H
  H503     1.0000 0.73990  0.41130  0.04610  Biso   1.000  H
  C536     1.0000 0.76730  0.42510  0.12900  Biso   1.000  C
  H504     1.0000 0.75250  0.45310  0.13710  Biso   1.000  H
  H505     1.0000 0.78000  0.42540  0.08820  Biso   1.000  H
  H506     1.0000 0.79080  0.42100  0.15950  Biso   1.000  H
  C537     1.0000 0.72080  0.17300  0.09030  Biso   1.000  C
  C538     1.0000 0.71810  0.19970  0.14240  Biso   1.000  C
  C539     1.0000 0.67850  0.20960  0.16840  Biso   1.000  C
  H507     1.0000 0.67780  0.22740  0.20410  Biso   1.000  H
  C540     1.0000 0.63880  0.19420  0.14400  Biso   1.000  C
  C541     1.0000 0.64080  0.16800  0.09300  Biso   1.000  C
  H508     1.0000 0.61440  0.15650  0.07620  Biso   1.000  H
  C542     1.0000 0.68110  0.15800  0.06540  Biso   1.000  C
  C543     1.0000 0.59510  0.20350  0.17490  Biso   1.000  C
  C544     1.0000 0.57170  0.16200  0.19340  Biso   1.000  C
  H509     1.0000 0.54290  0.16950  0.21070  Biso   1.000  H
  H510     1.0000 0.56770  0.14320  0.15750  Biso   1.000  H
  H511     1.0000 0.58920  0.14640  0.22420  Biso   1.000  H
  C545     1.0000 0.56380  0.22470  0.12680  Biso   1.000  C
  H512     1.0000 0.57550  0.25330  0.11420  Biso   1.000  H
  H513     1.0000 0.56160  0.20540  0.09100  Biso   1.000  H
  H514     1.0000 0.53460  0.22860  0.14480  Biso   1.000  H
  C546     1.0000 0.59810  0.23240  0.23060  Biso   1.000  C
  H515     1.0000 0.61310  0.21640  0.26350  Biso   1.000  H
  H516     1.0000 0.61460  0.25900  0.22060  Biso   1.000  H
  H517     1.0000 0.56840  0.24040  0.24400  Biso   1.000  H
  N13      1.0000 0.88540  0.99250  0.57880  Biso   1.000  N
  C547     1.0000 0.86190  0.02390  0.59940  Biso   1.000  C
  H518     1.0000 0.85590  0.04780  0.57280  Biso   1.000  H
  C548     1.0000 0.84470  0.02550  0.65710  Biso   1.000  C
  H519     1.0000 0.82640  0.04960  0.66790  Biso   1.000  H
  C549     1.0000 0.85250  0.99440  0.69900  Biso   1.000  C
  C550     1.0000 0.88230  0.96180  0.68090  Biso   1.000  C
  H520     1.0000 0.89310  0.94060  0.70900  Biso   1.000  H
  C551     1.0000 0.89530  0.96200  0.62060  Biso   1.000  C
  H521     1.0000 0.91300  0.93810  0.60740  Biso   1.000  H
  C552     1.0000 0.83480  0.99460  0.76300  Biso   1.000  C
  C553     1.0000 0.82440  0.03370  0.79300  Biso   1.000  C
  H522     1.0000 0.82830  0.06080  0.77220  Biso   1.000  H
  C554     1.0000 0.80870  0.03390  0.85160  Biso   1.000  C
  C555     1.0000 0.80090  0.99380  0.87990  Biso   1.000  C
  H523     1.0000 0.78790  0.99330  0.91940  Biso   1.000  H
  C556     1.0000 0.81160  0.95480  0.85180  Biso   1.000  C
  C557     1.0000 0.82750  0.95530  0.79430  Biso   1.000  C
  H524     1.0000 0.83400  0.92820  0.77470  Biso   1.000  H
  C558     1.0000 0.79930  0.07660  0.88380  Biso   1.000  C
  C559     1.0000 0.80450  0.91150  0.88530  Biso   1.000  C
  Co26     1.0000 0.18318  0.82781  0.10509  Biso   1.000  Co
  S22      1.0000 0.23106  0.78368  0.17713  Biso   1.000  S
  O96      1.0000 0.24129  0.83672  0.06450  Biso   1.000  O
  O97      1.0000 0.22202  0.92730  0.93390  Biso   1.000  O
  O98      1.0000 0.18710  0.88907  0.85920  Biso   1.000  O
  O99      1.0000 0.21768  0.08638  0.93450  Biso   1.000  O
  O100     1.0000 0.17958  0.12223  0.86020  Biso   1.000  O
  O101     1.0000 0.17920  0.76870  0.06200  Biso   1.000  O
  C560     1.0000 0.18910  0.73270  0.08940  Biso   1.000  C
  C561     1.0000 0.21490  0.73240  0.14330  Biso   1.000  C
  C562     1.0000 0.22460  0.69330  0.17330  Biso   1.000  C
  H525     1.0000 0.24170  0.69430  0.20960  Biso   1.000  H
  C563     1.0000 0.21000  0.65260  0.15180  Biso   1.000  C
  C564     1.0000 0.18630  0.65280  0.09750  Biso   1.000  C
  H526     1.0000 0.17680  0.62570  0.08060  Biso   1.000  H
  C565     1.0000 0.17620  0.69180  0.06710  Biso   1.000  C
  C566     1.0000 0.21760  0.61110  0.18820  Biso   1.000  C
  C567     1.0000 0.23340  0.61650  0.25240  Biso   1.000  C
  H527     1.0000 0.21250  0.63460  0.27540  Biso   1.000  H
  H528     1.0000 0.26220  0.63080  0.25230  Biso   1.000  H
  H529     1.0000 0.23590  0.58760  0.27180  Biso   1.000  H
  C568     1.0000 0.25240  0.58300  0.15860  Biso   1.000  C
  H530     1.0000 0.24470  0.57770  0.11570  Biso   1.000  H
  H531     1.0000 0.25450  0.55490  0.18020  Biso   1.000  H
  H532     1.0000 0.28080  0.59810  0.16070  Biso   1.000  H
  C569     1.0000 0.17650  0.58240  0.19090  Biso   1.000  C
  H533     1.0000 0.16510  0.57810  0.14940  Biso   1.000  H
  H534     1.0000 0.15420  0.59690  0.21600  Biso   1.000  H
  H535     1.0000 0.18390  0.55390  0.20880  Biso   1.000  H
  O102     1.0000 0.17600  0.76900  0.07000  Biso   1.000  O
  C570     1.0000 0.19780  0.73200  0.08800  Biso   1.000  C
  C571     1.0000 0.22710  0.73200  0.13400  Biso   1.000  C
  C572     1.0000 0.24760  0.69580  0.15160  Biso   1.000  C
  H536     1.0000 0.26690  0.69740  0.18570  Biso   1.000  H
  C573     1.0000 0.24250  0.65530  0.12260  Biso   1.000  C
  C574     1.0000 0.21130  0.65550  0.07750  Biso   1.000  C
  H537     1.0000 0.20410  0.62830  0.05870  Biso   1.000  H
  C575     1.0000 0.19040  0.69130  0.05800  Biso   1.000  C
  C576     1.0000 0.26580  0.61250  0.13460  Biso   1.000  C
  C577     1.0000 0.31070  0.62560  0.15800  Biso   1.000  C
  H538     1.0000 0.32790  0.59920  0.16700  Biso   1.000  H
  H539     1.0000 0.30740  0.64300  0.19560  Biso   1.000  H
  H540     1.0000 0.32590  0.64320  0.12710  Biso   1.000  H
  C578     1.0000 0.28420  0.59390  0.07500  Biso   1.000  C
  H541     1.0000 0.29930  0.56610  0.08340  Biso   1.000  H
  H542     1.0000 0.30510  0.61480  0.05720  Biso   1.000  H
  H543     1.0000 0.26010  0.58870  0.04610  Biso   1.000  H
  C579     1.0000 0.23270  0.57490  0.12900  Biso   1.000  C
  H544     1.0000 0.24750  0.54690  0.13710  Biso   1.000  H
  H545     1.0000 0.22000  0.57460  0.08820  Biso   1.000  H
  H546     1.0000 0.20920  0.57900  0.15950  Biso   1.000  H
  C580     1.0000 0.27920  0.82700  0.09030  Biso   1.000  C
  C581     1.0000 0.28190  0.80030  0.14240  Biso   1.000  C
  C582     1.0000 0.32150  0.79040  0.16840  Biso   1.000  C
  H547     1.0000 0.32220  0.77260  0.20410  Biso   1.000  H
  C583     1.0000 0.36120  0.80580  0.14400  Biso   1.000  C
  C584     1.0000 0.35920  0.83200  0.09300  Biso   1.000  C
  H548     1.0000 0.38560  0.84350  0.07620  Biso   1.000  H
  C585     1.0000 0.31890  0.84200  0.06540  Biso   1.000  C
  C586     1.0000 0.40490  0.79650  0.17490  Biso   1.000  C
  C587     1.0000 0.42830  0.83800  0.19340  Biso   1.000  C
  H549     1.0000 0.45710  0.83050  0.21070  Biso   1.000  H
  H550     1.0000 0.43230  0.85680  0.15750  Biso   1.000  H
  H551     1.0000 0.41080  0.85360  0.22420  Biso   1.000  H
  C588     1.0000 0.43620  0.77530  0.12680  Biso   1.000  C
  H552     1.0000 0.42450  0.74670  0.11420  Biso   1.000  H
  H553     1.0000 0.43840  0.79460  0.09100  Biso   1.000  H
  H554     1.0000 0.46540  0.77140  0.14480  Biso   1.000  H
  C589     1.0000 0.40190  0.76760  0.23060  Biso   1.000  C
  H555     1.0000 0.38690  0.78360  0.26350  Biso   1.000  H
  H556     1.0000 0.38540  0.74100  0.22060  Biso   1.000  H
  H557     1.0000 0.43160  0.75960  0.24400  Biso   1.000  H
  N14      1.0000 0.11460  0.00750  0.57880  Biso   1.000  N
  C590     1.0000 0.13810  0.97610  0.59940  Biso   1.000  C
  H558     1.0000 0.14410  0.95220  0.57280  Biso   1.000  H
  C591     1.0000 0.15530  0.97450  0.65710  Biso   1.000  C
  H559     1.0000 0.17360  0.95040  0.66790  Biso   1.000  H
  C592     1.0000 0.14750  0.00560  0.69900  Biso   1.000  C
  C593     1.0000 0.11770  0.03820  0.68090  Biso   1.000  C
  H560     1.0000 0.10690  0.05940  0.70900  Biso   1.000  H
  C594     1.0000 0.10470  0.03800  0.62060  Biso   1.000  C
  H561     1.0000 0.08700  0.06190  0.60740  Biso   1.000  H
  C595     1.0000 0.16520  0.00540  0.76300  Biso   1.000  C
  C596     1.0000 0.17560  0.96630  0.79300  Biso   1.000  C
  H562     1.0000 0.17170  0.93920  0.77220  Biso   1.000  H
  C597     1.0000 0.19130  0.96610  0.85160  Biso   1.000  C
  C598     1.0000 0.19910  0.00620  0.87990  Biso   1.000  C
  H563     1.0000 0.21210  0.00670  0.91940  Biso   1.000  H
  C599     1.0000 0.18840  0.04520  0.85180  Biso   1.000  C
  C600     1.0000 0.17250  0.04470  0.79430  Biso   1.000  C
  H564     1.0000 0.16600  0.07180  0.77470  Biso   1.000  H
  C601     1.0000 0.20070  0.92340  0.88380  Biso   1.000  C
  C602     1.0000 0.19550  0.08850  0.88530  Biso   1.000  C
  Co27     1.0000 0.17219  0.18318  0.10509  Biso   1.000  Co
  S23      1.0000 0.21632  0.23106  0.17713  Biso   1.000  S
  O103     1.0000 0.16328  0.24129  0.06450  Biso   1.000  O
  O104     1.0000 0.07270  0.22202  0.93390  Biso   1.000  O
  O105     1.0000 0.11093  0.18710  0.85920  Biso   1.000  O
  O106     1.0000 0.91362  0.21768  0.93450  Biso   1.000  O
  O107     1.0000 0.87777  0.17958  0.86020  Biso   1.000  O
  O108     1.0000 0.23130  0.17920  0.06200  Biso   1.000  O
  C603     1.0000 0.26730  0.18910  0.08940  Biso   1.000  C
  C604     1.0000 0.26760  0.21490  0.14330  Biso   1.000  C
  C605     1.0000 0.30670  0.22460  0.17330  Biso   1.000  C
  H565     1.0000 0.30570  0.24170  0.20960  Biso   1.000  H
  C606     1.0000 0.34740  0.21000  0.15180  Biso   1.000  C
  C607     1.0000 0.34720  0.18630  0.09750  Biso   1.000  C
  H566     1.0000 0.37430  0.17680  0.08060  Biso   1.000  H
  C608     1.0000 0.30820  0.17620  0.06710  Biso   1.000  C
  C609     1.0000 0.38890  0.21760  0.18820  Biso   1.000  C
  C610     1.0000 0.38350  0.23340  0.25240  Biso   1.000  C
  H567     1.0000 0.36540  0.21250  0.27540  Biso   1.000  H
  H568     1.0000 0.36920  0.26220  0.25230  Biso   1.000  H
  H569     1.0000 0.41240  0.23590  0.27180  Biso   1.000  H
  C611     1.0000 0.41700  0.25240  0.15860  Biso   1.000  C
  H570     1.0000 0.42230  0.24470  0.11570  Biso   1.000  H
  H571     1.0000 0.44510  0.25450  0.18020  Biso   1.000  H
  H572     1.0000 0.40190  0.28080  0.16070  Biso   1.000  H
  C612     1.0000 0.41760  0.17650  0.19090  Biso   1.000  C
  H573     1.0000 0.42190  0.16510  0.14940  Biso   1.000  H
  H574     1.0000 0.40310  0.15420  0.21600  Biso   1.000  H
  H575     1.0000 0.44610  0.18390  0.20880  Biso   1.000  H
  O109     1.0000 0.23100  0.17600  0.07000  Biso   1.000  O
  C613     1.0000 0.26800  0.19780  0.08800  Biso   1.000  C
  C614     1.0000 0.26800  0.22710  0.13400  Biso   1.000  C
  C615     1.0000 0.30420  0.24760  0.15160  Biso   1.000  C
  H576     1.0000 0.30260  0.26690  0.18570  Biso   1.000  H
  C616     1.0000 0.34470  0.24250  0.12260  Biso   1.000  C
  C617     1.0000 0.34450  0.21130  0.07750  Biso   1.000  C
  H577     1.0000 0.37170  0.20410  0.05870  Biso   1.000  H
  C618     1.0000 0.30870  0.19040  0.05800  Biso   1.000  C
  C619     1.0000 0.38750  0.26580  0.13460  Biso   1.000  C
  C620     1.0000 0.37440  0.31070  0.15800  Biso   1.000  C
  H578     1.0000 0.40080  0.32790  0.16700  Biso   1.000  H
  H579     1.0000 0.35700  0.30740  0.19560  Biso   1.000  H
  H580     1.0000 0.35680  0.32590  0.12710  Biso   1.000  H
  C621     1.0000 0.40610  0.28420  0.07500  Biso   1.000  C
  H581     1.0000 0.43390  0.29930  0.08340  Biso   1.000  H
  H582     1.0000 0.38520  0.30510  0.05720  Biso   1.000  H
  H583     1.0000 0.41130  0.26010  0.04610  Biso   1.000  H
  C622     1.0000 0.42510  0.23270  0.12900  Biso   1.000  C
  H584     1.0000 0.45310  0.24750  0.13710  Biso   1.000  H
  H585     1.0000 0.42540  0.22000  0.08820  Biso   1.000  H
  H586     1.0000 0.42100  0.20920  0.15950  Biso   1.000  H
  C623     1.0000 0.17300  0.27920  0.09030  Biso   1.000  C
  C624     1.0000 0.19970  0.28190  0.14240  Biso   1.000  C
  C625     1.0000 0.20960  0.32150  0.16840  Biso   1.000  C
  H587     1.0000 0.22740  0.32220  0.20410  Biso   1.000  H
  C626     1.0000 0.19420  0.36120  0.14400  Biso   1.000  C
  C627     1.0000 0.16800  0.35920  0.09300  Biso   1.000  C
  H588     1.0000 0.15650  0.38560  0.07620  Biso   1.000  H
  C628     1.0000 0.15800  0.31890  0.06540  Biso   1.000  C
  C629     1.0000 0.20350  0.40490  0.17490  Biso   1.000  C
  C630     1.0000 0.16200  0.42830  0.19340  Biso   1.000  C
  H589     1.0000 0.16950  0.45710  0.21070  Biso   1.000  H
  H590     1.0000 0.14320  0.43230  0.15750  Biso   1.000  H
  H591     1.0000 0.14640  0.41080  0.22420  Biso   1.000  H
  C631     1.0000 0.22470  0.43620  0.12680  Biso   1.000  C
  H592     1.0000 0.25330  0.42450  0.11420  Biso   1.000  H
  H593     1.0000 0.20540  0.43840  0.09100  Biso   1.000  H
  H594     1.0000 0.22860  0.46540  0.14480  Biso   1.000  H
  C632     1.0000 0.23240  0.40190  0.23060  Biso   1.000  C
  H595     1.0000 0.21640  0.38690  0.26350  Biso   1.000  H
  H596     1.0000 0.25900  0.38540  0.22060  Biso   1.000  H
  H597     1.0000 0.24040  0.43160  0.24400  Biso   1.000  H
  N15      1.0000 0.99250  0.11460  0.57880  Biso   1.000  N
  C633     1.0000 0.02390  0.13810  0.59940  Biso   1.000  C
  H598     1.0000 0.04780  0.14410  0.57280  Biso   1.000  H
  C634     1.0000 0.02550  0.15530  0.65710  Biso   1.000  C
  H599     1.0000 0.04960  0.17360  0.66790  Biso   1.000  H
  C635     1.0000 0.99440  0.14750  0.69900  Biso   1.000  C
  C636     1.0000 0.96180  0.11770  0.68090  Biso   1.000  C
  H600     1.0000 0.94060  0.10690  0.70900  Biso   1.000  H
  C637     1.0000 0.96200  0.10470  0.62060  Biso   1.000  C
  H601     1.0000 0.93810  0.08700  0.60740  Biso   1.000  H
  C638     1.0000 0.99460  0.16520  0.76300  Biso   1.000  C
  C639     1.0000 0.03370  0.17560  0.79300  Biso   1.000  C
  H602     1.0000 0.06080  0.17170  0.77220  Biso   1.000  H
  C640     1.0000 0.03390  0.19130  0.85160  Biso   1.000  C
  C641     1.0000 0.99380  0.19910  0.87990  Biso   1.000  C
  H603     1.0000 0.99330  0.21210  0.91940  Biso   1.000  H
  C642     1.0000 0.95480  0.18840  0.85180  Biso   1.000  C
  C643     1.0000 0.95530  0.17250  0.79430  Biso   1.000  C
  H604     1.0000 0.92820  0.16600  0.77470  Biso   1.000  H
  C644     1.0000 0.07660  0.20070  0.88380  Biso   1.000  C
  C645     1.0000 0.91150  0.19550  0.88530  Biso   1.000  C
  Co28     1.0000 0.82781  0.81682  0.10509  Biso   1.000  Co
  S24      1.0000 0.78368  0.76894  0.17713  Biso   1.000  S
  O110     1.0000 0.83672  0.75871  0.06450  Biso   1.000  O
  O111     1.0000 0.92730  0.77798  0.93390  Biso   1.000  O
  O112     1.0000 0.88907  0.81290  0.85920  Biso   1.000  O
  O113     1.0000 0.08638  0.78232  0.93450  Biso   1.000  O
  O114     1.0000 0.12223  0.82042  0.86020  Biso   1.000  O
  O115     1.0000 0.76870  0.82080  0.06200  Biso   1.000  O
  C646     1.0000 0.73270  0.81090  0.08940  Biso   1.000  C
  C647     1.0000 0.73240  0.78510  0.14330  Biso   1.000  C
  C648     1.0000 0.69330  0.77540  0.17330  Biso   1.000  C
  H605     1.0000 0.69430  0.75830  0.20960  Biso   1.000  H
  C649     1.0000 0.65260  0.79000  0.15180  Biso   1.000  C
  C650     1.0000 0.65280  0.81370  0.09750  Biso   1.000  C
  H606     1.0000 0.62570  0.82320  0.08060  Biso   1.000  H
  C651     1.0000 0.69180  0.82380  0.06710  Biso   1.000  C
  C652     1.0000 0.61110  0.78240  0.18820  Biso   1.000  C
  C653     1.0000 0.61650  0.76660  0.25240  Biso   1.000  C
  H607     1.0000 0.63460  0.78750  0.27540  Biso   1.000  H
  H608     1.0000 0.63080  0.73780  0.25230  Biso   1.000  H
  H609     1.0000 0.58760  0.76410  0.27180  Biso   1.000  H
  C654     1.0000 0.58300  0.74760  0.15860  Biso   1.000  C
  H610     1.0000 0.57770  0.75530  0.11570  Biso   1.000  H
  H611     1.0000 0.55490  0.74550  0.18020  Biso   1.000  H
  H612     1.0000 0.59810  0.71920  0.16070  Biso   1.000  H
  C655     1.0000 0.58240  0.82350  0.19090  Biso   1.000  C
  H613     1.0000 0.57810  0.83490  0.14940  Biso   1.000  H
  H614     1.0000 0.59690  0.84580  0.21600  Biso   1.000  H
  H615     1.0000 0.55390  0.81610  0.20880  Biso   1.000  H
  O116     1.0000 0.76900  0.82400  0.07000  Biso   1.000  O
  C656     1.0000 0.73200  0.80220  0.08800  Biso   1.000  C
  C657     1.0000 0.73200  0.77290  0.13400  Biso   1.000  C
  C658     1.0000 0.69580  0.75240  0.15160  Biso   1.000  C
  H616     1.0000 0.69740  0.73310  0.18570  Biso   1.000  H
  C659     1.0000 0.65530  0.75750  0.12260  Biso   1.000  C
  C660     1.0000 0.65550  0.78870  0.07750  Biso   1.000  C
  H617     1.0000 0.62830  0.79590  0.05870  Biso   1.000  H
  C661     1.0000 0.69130  0.80960  0.05800  Biso   1.000  C
  C662     1.0000 0.61250  0.73420  0.13460  Biso   1.000  C
  C663     1.0000 0.62560  0.68930  0.15800  Biso   1.000  C
  H618     1.0000 0.59920  0.67210  0.16700  Biso   1.000  H
  H619     1.0000 0.64300  0.69260  0.19560  Biso   1.000  H
  H620     1.0000 0.64320  0.67410  0.12710  Biso   1.000  H
  C664     1.0000 0.59390  0.71580  0.07500  Biso   1.000  C
  H621     1.0000 0.56610  0.70070  0.08340  Biso   1.000  H
  H622     1.0000 0.61480  0.69490  0.05720  Biso   1.000  H
  H623     1.0000 0.58870  0.73990  0.04610  Biso   1.000  H
  C665     1.0000 0.57490  0.76730  0.12900  Biso   1.000  C
  H624     1.0000 0.54690  0.75250  0.13710  Biso   1.000  H
  H625     1.0000 0.57460  0.78000  0.08820  Biso   1.000  H
  H626     1.0000 0.57900  0.79080  0.15950  Biso   1.000  H
  C666     1.0000 0.82700  0.72080  0.09030  Biso   1.000  C
  C667     1.0000 0.80030  0.71810  0.14240  Biso   1.000  C
  C668     1.0000 0.79040  0.67850  0.16840  Biso   1.000  C
  H627     1.0000 0.77260  0.67780  0.20410  Biso   1.000  H
  C669     1.0000 0.80580  0.63880  0.14400  Biso   1.000  C
  C670     1.0000 0.83200  0.64080  0.09300  Biso   1.000  C
  H628     1.0000 0.84350  0.61440  0.07620  Biso   1.000  H
  C671     1.0000 0.84200  0.68110  0.06540  Biso   1.000  C
  C672     1.0000 0.79650  0.59510  0.17490  Biso   1.000  C
  C673     1.0000 0.83800  0.57170  0.19340  Biso   1.000  C
  H629     1.0000 0.83050  0.54290  0.21070  Biso   1.000  H
  H630     1.0000 0.85680  0.56770  0.15750  Biso   1.000  H
  H631     1.0000 0.85360  0.58920  0.22420  Biso   1.000  H
  C674     1.0000 0.77530  0.56380  0.12680  Biso   1.000  C
  H632     1.0000 0.74670  0.57550  0.11420  Biso   1.000  H
  H633     1.0000 0.79460  0.56160  0.09100  Biso   1.000  H
  H634     1.0000 0.77140  0.53460  0.14480  Biso   1.000  H
  C675     1.0000 0.76760  0.59810  0.23060  Biso   1.000  C
  H635     1.0000 0.78360  0.61310  0.26350  Biso   1.000  H
  H636     1.0000 0.74100  0.61460  0.22060  Biso   1.000  H
  H637     1.0000 0.75960  0.56840  0.24400  Biso   1.000  H
  N16      1.0000 0.00750  0.88540  0.57880  Biso   1.000  N
  C676     1.0000 0.97610  0.86190  0.59940  Biso   1.000  C
  H638     1.0000 0.95220  0.85590  0.57280  Biso   1.000  H
  C677     1.0000 0.97450  0.84470  0.65710  Biso   1.000  C
  H639     1.0000 0.95040  0.82640  0.66790  Biso   1.000  H
  C678     1.0000 0.00560  0.85250  0.69900  Biso   1.000  C
  C679     1.0000 0.03820  0.88230  0.68090  Biso   1.000  C
  H640     1.0000 0.05940  0.89310  0.70900  Biso   1.000  H
  C680     1.0000 0.03800  0.89530  0.62060  Biso   1.000  C
  H641     1.0000 0.06190  0.91300  0.60740  Biso   1.000  H
  C681     1.0000 0.00540  0.83480  0.76300  Biso   1.000  C
  C682     1.0000 0.96630  0.82440  0.79300  Biso   1.000  C
  H642     1.0000 0.93920  0.82830  0.77220  Biso   1.000  H
  C683     1.0000 0.96610  0.80870  0.85160  Biso   1.000  C
  C684     1.0000 0.00620  0.80090  0.87990  Biso   1.000  C
  H643     1.0000 0.00670  0.78790  0.91940  Biso   1.000  H
  C685     1.0000 0.04520  0.81160  0.85180  Biso   1.000  C
  C686     1.0000 0.04470  0.82750  0.79430  Biso   1.000  C
  H644     1.0000 0.07180  0.83400  0.77470  Biso   1.000  H
  C687     1.0000 0.92340  0.79930  0.88380  Biso   1.000  C
  C688     1.0000 0.08850  0.80450  0.88530  Biso   1.000  C
  Co29     1.0000 0.13182  0.77322  0.00000  Biso   1.000  Co
  Co30     1.0000 0.23388  0.88275  0.00000  Biso   1.000  Co
  S25      1.0000 0.14424  0.68951  0.00000  Biso   1.000  S
  S26      1.0000 0.31768  0.87793  0.00000  Biso   1.000  S
  Co31     1.0000 0.86818  0.22678  0.00000  Biso   1.000  Co
  Co32     1.0000 0.76612  0.11725  0.00000  Biso   1.000  Co
  S27      1.0000 0.85576  0.31049  0.00000  Biso   1.000  S
  S28      1.0000 0.68232  0.12207  0.00000  Biso   1.000  S
  Co33     1.0000 0.77322  0.86818  0.00000  Biso   1.000  Co
  Co34     1.0000 0.88275  0.76612  0.00000  Biso   1.000  Co
  S29      1.0000 0.68951  0.85576  0.00000  Biso   1.000  S
  S30      1.0000 0.87793  0.68232  0.00000  Biso   1.000  S
  Co35     1.0000 0.22678  0.13182  0.00000  Biso   1.000  Co
  Co36     1.0000 0.11725  0.23388  0.00000  Biso   1.000  Co
  S31      1.0000 0.31049  0.14424  0.00000  Biso   1.000  S
  S32      1.0000 0.12207  0.31768  0.00000  Biso   1.000  S
  Co37     1.0000 0.07273  0.00503  0.50000  Biso   1.000  Co
  O117     1.0000 0.06810  0.94140  0.50000  Biso   1.000  O
  H645     1.0000 0.08670  0.91840  0.50000  Biso   1.000  H
  Co38     1.0000 0.92727  0.99497  0.50000  Biso   1.000  Co
  O118     1.0000 0.93190  0.05860  0.50000  Biso   1.000  O
  H646     1.0000 0.91330  0.08160  0.50000  Biso   1.000  H
  Co39     1.0000 0.00503  0.92727  0.50000  Biso   1.000  Co
  O119     1.0000 0.94140  0.93190  0.50000  Biso   1.000  O
  H647     1.0000 0.91840  0.91330  0.50000  Biso   1.000  H
  Co40     1.0000 0.99497  0.07273  0.50000  Biso   1.000  Co
  O120     1.0000 0.05860  0.06810  0.50000  Biso   1.000  O
  H648     1.0000 0.08160  0.08670  0.50000  Biso   1.000  H
