data_image0
_cell_length_a       43.7244
_cell_length_b       43.7244
_cell_length_c       11.683
_cell_angle_alpha    90
_cell_angle_beta     90
_cell_angle_gamma    120

_symmetry_space_group_name_H-M    "P 1"
_symmetry_int_tables_number       1

loop_
  _symmetry_equiv_pos_as_xyz
  'x, y, z'

loop_
  _atom_site_label
  _atom_site_occupancy
  _atom_site_fract_x
  _atom_site_fract_y
  _atom_site_fract_z
  _atom_site_thermal_displace_type
  _atom_site_B_iso_or_equiv
  _atom_site_type_symbol
  Zn1      1.0000 0.28315  0.17195  0.17878  Biso   1.000  Zn
  Zn2      1.0000 0.17415  0.88768  0.59589  Biso   1.000  Zn
  N1       1.0000 0.33270  0.22010  0.20310  Biso   1.000  N
  N2       1.0000 0.30840  0.15150  0.26720  Biso   1.000  N
  N3       1.0000 0.21810  0.87790  0.58530  Biso   1.000  N
  O1       1.0000 0.28050  0.18480  0.02040  Biso   1.000  O
  O2       1.0000 0.24440  0.12320  0.15300  Biso   1.000  O
  O3       1.0000 0.12500  0.87570  0.62370  Biso   1.000  O
  O4       1.0000 0.18850  0.90790  0.75020  Biso   1.000  O
  N4       1.0000 0.38750  0.39540  0.78430  Biso   1.000  N
  C1       1.0000 0.35100  0.37490  0.77690  Biso   1.000  C
  H1       1.0000 0.33750  0.38500  0.74950  Biso   1.000  H
  C2       1.0000 0.33410  0.33970  0.80980  Biso   1.000  C
  H2       1.0000 0.30910  0.32560  0.80470  Biso   1.000  H
  C3       1.0000 0.35380  0.32490  0.85000  Biso   1.000  C
  C4       1.0000 0.39030  0.34540  0.85730  Biso   1.000  C
  H3       1.0000 0.40370  0.33530  0.88480  Biso   1.000  H
  C5       1.0000 0.40720  0.38070  0.82450  Biso   1.000  C
  H4       1.0000 0.43220  0.39470  0.82950  Biso   1.000  H
  C6       1.0000 0.23980  0.20590  0.87440  Biso   1.000  C
  C7       1.0000 0.33360  0.28621  0.89230  Biso   1.000  C
  C8       1.0000 0.35025  0.27440  0.96660  Biso   1.000  C
  H5       1.0000 0.37410  0.28970  0.98830  Biso   1.000  H
  C9       1.0000 0.33203  0.24020  0.00940  Biso   1.000  C
  C10      1.0000 0.29710  0.21774  0.97770  Biso   1.000  C
  C11      1.0000 0.28042  0.22955  0.90330  Biso   1.000  C
  C12      1.0000 0.29860  0.26380  0.86060  Biso   1.000  C
  H6       1.0000 0.28720  0.27190  0.80970  Biso   1.000  H
  C13      1.0000 0.21650  0.19540  0.98180  Biso   1.000  C
  H7       1.0000 0.22370  0.18290  0.03510  Biso   1.000  H
  H8       1.0000 0.21900  0.21670  0.01870  Biso   1.000  H
  H9       1.0000 0.19170  0.17990  0.96010  Biso   1.000  H
  C14      1.0000 0.23470  0.17290  0.80890  Biso   1.000  C
  H10      1.0000 0.24980  0.18030  0.74090  Biso   1.000  H
  H11      1.0000 0.24100  0.15890  0.85880  Biso   1.000  H
  H12      1.0000 0.20990  0.15850  0.78550  Biso   1.000  H
  C15      1.0000 0.22750  0.22520  0.79340  Biso   1.000  C
  H13      1.0000 0.24190  0.23220  0.72390  Biso   1.000  H
  H14      1.0000 0.20260  0.20950  0.77310  Biso   1.000  H
  H15      1.0000 0.22990  0.24630  0.83170  Biso   1.000  H
  C16      1.0000 0.35120  0.22810  0.08780  Biso   1.000  C
  H16      1.0000 0.37620  0.24690  0.09580  Biso   1.000  H
  H17      1.0000 0.35050  0.20670  0.05650  Biso   1.000  H
  C17      1.0000 0.35010  0.21550  0.30150  Biso   1.000  C
  H18      1.0000 0.33570  0.21480  0.36910  Biso   1.000  H
  C18      1.0000 0.38700  0.24420  0.32630  Biso   1.000  C
  H19      1.0000 0.38780  0.26720  0.32950  Biso   1.000  H
  H20      1.0000 0.40290  0.24520  0.26420  Biso   1.000  H
  C19      1.0000 0.39960  0.23720  0.44080  Biso   1.000  C
  H21      1.0000 0.42400  0.25620  0.45660  Biso   1.000  H
  H22      1.0000 0.38420  0.23680  0.50350  Biso   1.000  H
  C20      1.0000 0.39820  0.20250  0.43450  Biso   1.000  C
  H23      1.0000 0.41540  0.20380  0.37660  Biso   1.000  H
  H24      1.0000 0.40510  0.19730  0.50950  Biso   1.000  H
  C21      1.0000 0.36250  0.17360  0.40380  Biso   1.000  C
  H25      1.0000 0.36340  0.15150  0.39660  Biso   1.000  H
  H26      1.0000 0.34630  0.17030  0.46780  Biso   1.000  H
  C22      1.0000 0.34720  0.17850  0.29750  Biso   1.000  C
  H27      1.0000 0.36220  0.17880  0.23250  Biso   1.000  H
  C23      1.0000 0.26162  0.09109  0.28110  Biso   1.000  C
  C24      1.0000 0.25290  0.05940  0.33520  Biso   1.000  C
  H28      1.0000 0.26940  0.05810  0.38500  Biso   1.000  H
  C25      1.0000 0.22010  0.02973  0.31650  Biso   1.000  C
  C26      1.0000 0.19594  0.03165  0.24360  Biso   1.000  C
  H29      1.0000 0.17350  0.01130  0.23080  Biso   1.000  H
  C27      1.0000 0.20470  0.06330  0.18950  Biso   1.000  C
  C28      1.0000 0.23750  0.09301  0.20820  Biso   1.000  C
  C29      1.0000 0.17650  0.06400  0.10840  Biso   1.000  C
  C30      1.0000 0.19250  0.07530  0.98640  Biso   1.000  C
  H30      1.0000 0.21420  0.09830  0.99020  Biso   1.000  H
  H31      1.0000 0.19800  0.05760  0.95580  Biso   1.000  H
  H32      1.0000 0.17550  0.07690  0.93620  Biso   1.000  H
  C31      1.0000 0.16580  0.08970  0.15310  Biso   1.000  C
  H33      1.0000 0.18670  0.11330  0.15930  Biso   1.000  H
  H34      1.0000 0.14880  0.09060  0.10030  Biso   1.000  H
  H35      1.0000 0.15490  0.08200  0.22870  Biso   1.000  H
  C32      1.0000 0.14340  0.02880  0.10100  Biso   1.000  C
  H36      1.0000 0.14900  0.01110  0.07250  Biso   1.000  H
  H37      1.0000 0.13270  0.02180  0.17740  Biso   1.000  H
  H38      1.0000 0.12670  0.03040  0.04900  Biso   1.000  H
  C33      1.0000 0.21010  0.99490  0.38120  Biso   1.000  C
  C34      1.0000 0.23330  0.99390  0.46060  Biso   1.000  C
  H39      1.0000 0.25520  0.01460  0.47570  Biso   1.000  H
  C35      1.0000 0.22430  0.96260  0.51780  Biso   1.000  C
  H40      1.0000 0.24010  0.96200  0.57200  Biso   1.000  H
  N5       1.0000 0.19220  0.93240  0.49560  Biso   1.000  N
  C36      1.0000 0.16900  0.93341  0.41630  Biso   1.000  C
  H41      1.0000 0.14700  0.91270  0.40110  Biso   1.000  H
  C37      1.0000 0.17800  0.96470  0.35900  Biso   1.000  C
  H42      1.0000 0.16210  0.96530  0.30480  Biso   1.000  H
  C38      1.0000 0.06820  0.88620  0.68450  Biso   1.000  C
  N6       1.0000 0.93453  0.74660  0.27910  Biso   1.000  N
  C39      1.0000 0.93535  0.76790  0.36880  Biso   1.000  C
  H43      1.0000 0.91460  0.76840  0.38910  Biso   1.000  H
  C40      1.0000 0.96660  0.78840  0.42870  Biso   1.000  C
  H44      1.0000 0.96710  0.80290  0.49000  Biso   1.000  H
  C41      1.0000 0.99694  0.78760  0.39890  Biso   1.000  C
  C42      1.0000 0.99611  0.76630  0.30930  Biso   1.000  C
  H45      1.0000 0.01690  0.76580  0.28890  Biso   1.000  H
  C43      1.0000 0.96490  0.74580  0.24930  Biso   1.000  C
  H46      1.0000 0.96430  0.73120  0.18800  Biso   1.000  H
  C44      1.0000 0.07940  0.87870  0.80050  Biso   1.000  C
  H47      1.0000 0.06170  0.85520  0.82700  Biso   1.000  H
  H48      1.0000 0.10230  0.87980  0.79240  Biso   1.000  H
  H49      1.0000 0.08160  0.89640  0.85630  Biso   1.000  H
  C45      1.0000 0.03168  0.81120  0.46060  Biso   1.000  C
  C46      1.0000 0.06170  0.80910  0.43590  Biso   1.000  C
  H50      1.0000 0.06050  0.79240  0.38130  Biso   1.000  H
  C47      1.0000 0.09334  0.83130  0.49110  Biso   1.000  C
  C48      1.0000 0.09501  0.85570  0.57100  Biso   1.000  C
  C49      1.0000 0.06500  0.85780  0.59570  Biso   1.000  C
  C50      1.0000 0.03335  0.83550  0.54050  Biso   1.000  C
  H51      1.0000 0.01290  0.83700  0.55730  Biso   1.000  H
  C51      1.0000 0.09540  0.92200  0.64630  Biso   1.000  C
  H52      1.0000 0.08860  0.92720  0.57210  Biso   1.000  H
  H53      1.0000 0.09750  0.93960  0.70270  Biso   1.000  H
  H54      1.0000 0.11820  0.92290  0.63880  Biso   1.000  H
  C52      1.0000 0.03140  0.88470  0.69990  Biso   1.000  C
  H55      1.0000 0.01350  0.86100  0.72510  Biso   1.000  H
  H56      1.0000 0.03380  0.90210  0.75740  Biso   1.000  H
  H57      1.0000 0.02410  0.89010  0.62680  Biso   1.000  H
  C53      1.0000 0.12240  0.82870  0.44950  Biso   1.000  C
  H58      1.0000 0.11650  0.81000  0.39690  Biso   1.000  H
  C54      1.0000 0.18250  0.84360  0.41900  Biso   1.000  C
  H59      1.0000 0.19600  0.86470  0.36870  Biso   1.000  H
  C55      1.0000 0.17270  0.81170  0.34610  Biso   1.000  C
  H60      1.0000 0.15710  0.81080  0.28330  Biso   1.000  H
  H61      1.0000 0.15920  0.79010  0.39310  Biso   1.000  H
  C56      1.0000 0.20540  0.81150  0.29370  Biso   1.000  C
  H62      1.0000 0.19760  0.78870  0.25470  Biso   1.000  H
  H63      1.0000 0.21650  0.83050  0.23570  Biso   1.000  H
  C57      1.0000 0.23140  0.81680  0.38090  Biso   1.000  C
  H64      1.0000 0.25320  0.82070  0.34200  Biso   1.000  H
  H65      1.0000 0.22220  0.79480  0.42590  Biso   1.000  H
  C58      1.0000 0.24100  0.84660  0.46170  Biso   1.000  C
  H66      1.0000 0.25550  0.86920  0.42100  Biso   1.000  H
  H67      1.0000 0.25550  0.84520  0.52460  Biso   1.000  H
  C59      1.0000 0.20800  0.84580  0.51250  Biso   1.000  C
  H68      1.0000 0.19540  0.82440  0.56220  Biso   1.000  H
  C60      1.0000 0.23130  0.87650  0.69200  Biso   1.000  C
  H69      1.0000 0.25140  0.87240  0.68070  Biso   1.000  H
  H70      1.0000 0.21280  0.85590  0.73390  Biso   1.000  H
  C61      1.0000 0.24380  0.90911  0.76700  Biso   1.000  C
  C62      1.0000 0.22232  0.92340  0.79070  Biso   1.000  C
  C63      1.0000 0.23490  0.95340  0.85850  Biso   1.000  C
  C64      1.0000 0.26900  0.96919  0.90260  Biso   1.000  C
  H71      1.0000 0.27760  0.98970  0.94890  Biso   1.000  H
  C65      1.0000 0.29046  0.95490  0.87890  Biso   1.000  C
  C66      1.0000 0.27785  0.92490  0.81110  Biso   1.000  C
  H72      1.0000 0.29250  0.91510  0.79490  Biso   1.000  H
  C67      1.0000 0.21130  0.96910  0.89090  Biso   1.000  C
  C68      1.0000 0.29820  0.12050  0.30160  Biso   1.000  C
  H73      1.0000 0.31430  0.11590  0.34180  Biso   1.000  H
  C69      1.0000 0.17960  0.94260  0.94950  Biso   1.000  C
  H74      1.0000 0.16480  0.95280  0.96970  Biso   1.000  H
  H75      1.0000 0.16640  0.92230  0.89890  Biso   1.000  H
  H76      1.0000 0.18640  0.93500  0.01920  Biso   1.000  H
  C70      1.0000 0.20000  0.98090  0.78010  Biso   1.000  C
  H77      1.0000 0.22100  0.99880  0.73990  Biso   1.000  H
  H78      1.0000 0.18670  0.96040  0.73010  Biso   1.000  H
  H79      1.0000 0.18500  0.99090  0.80090  Biso   1.000  H
  C71      1.0000 0.23110  0.00330  0.96500  Biso   1.000  C
  H80      1.0000 0.25220  0.02080  0.92430  Biso   1.000  H
  H81      1.0000 0.21550  0.01300  0.97900  Biso   1.000  H
  H82      1.0000 0.23790  0.99750  0.03820  Biso   1.000  H
  C72      1.0000 0.32894  0.97330  0.91790  Biso   1.000  C
  C73      1.0000 0.34870  0.95680  0.90070  Biso   1.000  C
  H83      1.0000 0.33820  0.93420  0.86600  Biso   1.000  H
  C74      1.0000 0.38390  0.97350  0.93420  Biso   1.000  C
  H84      1.0000 0.39750  0.96230  0.92240  Biso   1.000  H
  N7       1.0000 0.39935  0.00670  0.98500  Biso   1.000  N
  C75      1.0000 0.37960  0.02320  0.00220  Biso   1.000  C
  H85      1.0000 0.39010  0.04590  0.03680  Biso   1.000  H
  C76      1.0000 0.34440  0.00650  0.96860  Biso   1.000  C
  H86      1.0000 0.33080  0.01780  0.98040  Biso   1.000  H
  N8       1.0000 0.15480  0.84730  0.47140  Biso   1.000  N
  Zn3      1.0000 0.82805  0.11120  0.17878  Biso   1.000  Zn
  Zn4      1.0000 0.11232  0.28647  0.59589  Biso   1.000  Zn
  N9       1.0000 0.77990  0.11260  0.20310  Biso   1.000  N
  N10      1.0000 0.84850  0.15690  0.26720  Biso   1.000  N
  N11      1.0000 0.12210  0.34020  0.58530  Biso   1.000  N
  O5       1.0000 0.81520  0.09570  0.02040  Biso   1.000  O
  O6       1.0000 0.87680  0.12120  0.15300  Biso   1.000  O
  O7       1.0000 0.12430  0.24930  0.62370  Biso   1.000  O
  O8       1.0000 0.09210  0.28060  0.75020  Biso   1.000  O
  N12      1.0000 0.60460  0.99210  0.78430  Biso   1.000  N
  C77      1.0000 0.62510  0.97610  0.77690  Biso   1.000  C
  H87      1.0000 0.61500  0.95250  0.74950  Biso   1.000  H
  C78      1.0000 0.66030  0.99440  0.80980  Biso   1.000  C
  H88      1.0000 0.67440  0.98350  0.80470  Biso   1.000  H
  C79      1.0000 0.67510  0.02890  0.85000  Biso   1.000  C
  C80      1.0000 0.65460  0.04490  0.85730  Biso   1.000  C
  H89      1.0000 0.66470  0.06840  0.88480  Biso   1.000  H
  C81      1.0000 0.61930  0.02650  0.82450  Biso   1.000  C
  H90      1.0000 0.60530  0.03750  0.82950  Biso   1.000  H
  C82      1.0000 0.79410  0.03390  0.87440  Biso   1.000  C
  C83      1.0000 0.71379  0.04739  0.89230  Biso   1.000  C
  C84      1.0000 0.72560  0.07585  0.96660  Biso   1.000  C
  H91      1.0000 0.71030  0.08440  0.98830  Biso   1.000  H
  C85      1.0000 0.75980  0.09183  0.00940  Biso   1.000  C
  C86      1.0000 0.78226  0.07936  0.97770  Biso   1.000  C
  C87      1.0000 0.77045  0.05087  0.90330  Biso   1.000  C
  C88      1.0000 0.73620  0.03480  0.86060  Biso   1.000  C
  H92      1.0000 0.72810  0.01530  0.80970  Biso   1.000  H
  C89      1.0000 0.80460  0.02110  0.98180  Biso   1.000  C
  H93      1.0000 0.81710  0.04080  0.03510  Biso   1.000  H
  H94      1.0000 0.78330  0.00230  0.01870  Biso   1.000  H
  H95      1.0000 0.82010  0.01180  0.96010  Biso   1.000  H
  C90      1.0000 0.82710  0.06180  0.80890  Biso   1.000  C
  H96      1.0000 0.81970  0.06950  0.74090  Biso   1.000  H
  H97      1.0000 0.84110  0.08210  0.85880  Biso   1.000  H
  H98      1.0000 0.84150  0.05140  0.78550  Biso   1.000  H
  C91      1.0000 0.77480  0.00230  0.79340  Biso   1.000  C
  H99      1.0000 0.76780  0.00970  0.72390  Biso   1.000  H
  H100     1.0000 0.79050  0.99310  0.77310  Biso   1.000  H
  H101     1.0000 0.75370  0.98360  0.83170  Biso   1.000  H
  C92      1.0000 0.77190  0.12310  0.08780  Biso   1.000  C
  H102     1.0000 0.75310  0.12930  0.09580  Biso   1.000  H
  H103     1.0000 0.79330  0.14380  0.05650  Biso   1.000  H
  C93      1.0000 0.78450  0.13460  0.30150  Biso   1.000  C
  H104     1.0000 0.78520  0.12090  0.36910  Biso   1.000  H
  C94      1.0000 0.75580  0.14280  0.32630  Biso   1.000  C
  H105     1.0000 0.73280  0.12060  0.32950  Biso   1.000  H
  H106     1.0000 0.75480  0.15770  0.26420  Biso   1.000  H
  C95      1.0000 0.76280  0.16240  0.44080  Biso   1.000  C
  H107     1.0000 0.74380  0.16780  0.45660  Biso   1.000  H
  H108     1.0000 0.76320  0.14740  0.50350  Biso   1.000  H
  C96      1.0000 0.79750  0.19570  0.43450  Biso   1.000  C
  H109     1.0000 0.79620  0.21160  0.37660  Biso   1.000  H
  H110     1.0000 0.80270  0.20780  0.50950  Biso   1.000  H
  C97      1.0000 0.82640  0.18890  0.40380  Biso   1.000  C
  H111     1.0000 0.84850  0.21190  0.39660  Biso   1.000  H
  H112     1.0000 0.82970  0.17600  0.46780  Biso   1.000  H
  C98      1.0000 0.82150  0.16870  0.29750  Biso   1.000  C
  H113     1.0000 0.82120  0.18340  0.23250  Biso   1.000  H
  C99      1.0000 0.90891  0.17053  0.28110  Biso   1.000  C
  C100     1.0000 0.94060  0.19350  0.33520  Biso   1.000  C
  H114     1.0000 0.94190  0.21130  0.38500  Biso   1.000  H
  C101     1.0000 0.97027  0.19037  0.31650  Biso   1.000  C
  C102     1.0000 0.96835  0.16429  0.24360  Biso   1.000  C
  H115     1.0000 0.98870  0.16220  0.23080  Biso   1.000  H
  C103     1.0000 0.93670  0.14140  0.18950  Biso   1.000  C
  C104     1.0000 0.90699  0.14449  0.20820  Biso   1.000  C
  C105     1.0000 0.93600  0.11250  0.10840  Biso   1.000  C
  C106     1.0000 0.92470  0.11720  0.98640  Biso   1.000  C
  H116     1.0000 0.90170  0.11590  0.99020  Biso   1.000  H
  H117     1.0000 0.94240  0.14040  0.95580  Biso   1.000  H
  H118     1.0000 0.92310  0.09860  0.93620  Biso   1.000  H
  C107     1.0000 0.91030  0.07610  0.15310  Biso   1.000  C
  H119     1.0000 0.88670  0.07340  0.15930  Biso   1.000  H
  H120     1.0000 0.90940  0.05820  0.10030  Biso   1.000  H
  H121     1.0000 0.91800  0.07290  0.22870  Biso   1.000  H
  C108     1.0000 0.97120  0.11460  0.10100  Biso   1.000  C
  H122     1.0000 0.98890  0.13790  0.07250  Biso   1.000  H
  H123     1.0000 0.97820  0.11090  0.17740  Biso   1.000  H
  H124     1.0000 0.96960  0.09630  0.04900  Biso   1.000  H
  C109     1.0000 0.00510  0.21520  0.38120  Biso   1.000  C
  C110     1.0000 0.00610  0.23940  0.46060  Biso   1.000  C
  H125     1.0000 0.98540  0.24060  0.47570  Biso   1.000  H
  C111     1.0000 0.03740  0.26170  0.51780  Biso   1.000  C
  H126     1.0000 0.03800  0.27810  0.57200  Biso   1.000  H
  N13      1.0000 0.06760  0.25980  0.49560  Biso   1.000  N
  C112     1.0000 0.06659  0.23559  0.41630  Biso   1.000  C
  H127     1.0000 0.08730  0.23430  0.40110  Biso   1.000  H
  C113     1.0000 0.03530  0.21330  0.35900  Biso   1.000  C
  H128     1.0000 0.03470  0.19680  0.30480  Biso   1.000  H
  C114     1.0000 0.11380  0.18200  0.68450  Biso   1.000  C
  N14      1.0000 0.25340  0.18793  0.27910  Biso   1.000  N
  C115     1.0000 0.23210  0.16745  0.36880  Biso   1.000  C
  H129     1.0000 0.23160  0.14620  0.38910  Biso   1.000  H
  C116     1.0000 0.21160  0.17820  0.42870  Biso   1.000  C
  H130     1.0000 0.19710  0.16420  0.49000  Biso   1.000  H
  C117     1.0000 0.21240  0.20934  0.39890  Biso   1.000  C
  C118     1.0000 0.23370  0.22981  0.30930  Biso   1.000  C
  H131     1.0000 0.23420  0.25110  0.28890  Biso   1.000  H
  C119     1.0000 0.25420  0.21910  0.24930  Biso   1.000  C
  H132     1.0000 0.26880  0.23310  0.18800  Biso   1.000  H
  C120     1.0000 0.12130  0.20070  0.80050  Biso   1.000  C
  H133     1.0000 0.14480  0.20650  0.82700  Biso   1.000  H
  H134     1.0000 0.12020  0.22250  0.79240  Biso   1.000  H
  H135     1.0000 0.10360  0.18520  0.85630  Biso   1.000  H
  C121     1.0000 0.18880  0.22048  0.46060  Biso   1.000  C
  C122     1.0000 0.19090  0.25260  0.43590  Biso   1.000  C
  H136     1.0000 0.20760  0.26810  0.38130  Biso   1.000  H
  C123     1.0000 0.16870  0.26204  0.49110  Biso   1.000  C
  C124     1.0000 0.14430  0.23931  0.57100  Biso   1.000  C
  C125     1.0000 0.14220  0.20720  0.59570  Biso   1.000  C
  C126     1.0000 0.16450  0.19785  0.54050  Biso   1.000  C
  H137     1.0000 0.16300  0.17590  0.55730  Biso   1.000  H
  C127     1.0000 0.07800  0.17340  0.64630  Biso   1.000  C
  H138     1.0000 0.07280  0.16140  0.57210  Biso   1.000  H
  H139     1.0000 0.06040  0.15790  0.70270  Biso   1.000  H
  H140     1.0000 0.07710  0.19530  0.63880  Biso   1.000  H
  C128     1.0000 0.11530  0.14670  0.69990  Biso   1.000  C
  H141     1.0000 0.13900  0.15250  0.72510  Biso   1.000  H
  H142     1.0000 0.09790  0.13170  0.75740  Biso   1.000  H
  H143     1.0000 0.10990  0.13400  0.62680  Biso   1.000  H
  C129     1.0000 0.17130  0.29370  0.44950  Biso   1.000  C
  H144     1.0000 0.19000  0.30650  0.39690  Biso   1.000  H
  C130     1.0000 0.15640  0.33890  0.41900  Biso   1.000  C
  H145     1.0000 0.13530  0.33130  0.36870  Biso   1.000  H
  C131     1.0000 0.18830  0.36100  0.34610  Biso   1.000  C
  H146     1.0000 0.18920  0.34630  0.28330  Biso   1.000  H
  H147     1.0000 0.20990  0.36910  0.39310  Biso   1.000  H
  C132     1.0000 0.18850  0.39390  0.29370  Biso   1.000  C
  H148     1.0000 0.21130  0.40890  0.25470  Biso   1.000  H
  H149     1.0000 0.16950  0.38600  0.23570  Biso   1.000  H
  C133     1.0000 0.18320  0.41460  0.38090  Biso   1.000  C
  H150     1.0000 0.17930  0.43250  0.34200  Biso   1.000  H
  H151     1.0000 0.20520  0.42740  0.42590  Biso   1.000  H
  C134     1.0000 0.15340  0.39440  0.46170  Biso   1.000  C
  H152     1.0000 0.13080  0.38630  0.42100  Biso   1.000  H
  H153     1.0000 0.15480  0.41030  0.52460  Biso   1.000  H
  C135     1.0000 0.15420  0.36220  0.51250  Biso   1.000  C
  H154     1.0000 0.17560  0.37100  0.56220  Biso   1.000  H
  C136     1.0000 0.12350  0.35480  0.69200  Biso   1.000  C
  H155     1.0000 0.12760  0.37900  0.68070  Biso   1.000  H
  H156     1.0000 0.14410  0.35690  0.73390  Biso   1.000  H
  C137     1.0000 0.09089  0.33469  0.76700  Biso   1.000  C
  C138     1.0000 0.07660  0.29892  0.79070  Biso   1.000  C
  C139     1.0000 0.04660  0.28150  0.85850  Biso   1.000  C
  C140     1.0000 0.03081  0.29981  0.90260  Biso   1.000  C
  H157     1.0000 0.01030  0.28790  0.94890  Biso   1.000  H
  C141     1.0000 0.04510  0.33556  0.87890  Biso   1.000  C
  C142     1.0000 0.07510  0.35295  0.81110  Biso   1.000  C
  H158     1.0000 0.08490  0.37740  0.79490  Biso   1.000  H
  C143     1.0000 0.03090  0.24220  0.89090  Biso   1.000  C
  C144     1.0000 0.87950  0.17770  0.30160  Biso   1.000  C
  H159     1.0000 0.88410  0.19840  0.34180  Biso   1.000  H
  C145     1.0000 0.05740  0.23700  0.94950  Biso   1.000  C
  H160     1.0000 0.04720  0.21200  0.96970  Biso   1.000  H
  H161     1.0000 0.07770  0.24410  0.89890  Biso   1.000  H
  H162     1.0000 0.06500  0.25140  0.01920  Biso   1.000  H
  C146     1.0000 0.01910  0.21910  0.78010  Biso   1.000  C
  H163     1.0000 0.00120  0.22220  0.73990  Biso   1.000  H
  H164     1.0000 0.03960  0.22630  0.73010  Biso   1.000  H
  H165     1.0000 0.00910  0.19410  0.80090  Biso   1.000  H
  C147     1.0000 0.99670  0.22780  0.96500  Biso   1.000  C
  H166     1.0000 0.97920  0.23140  0.92430  Biso   1.000  H
  H167     1.0000 0.98700  0.20250  0.97900  Biso   1.000  H
  H168     1.0000 0.00250  0.24040  0.03820  Biso   1.000  H
  C148     1.0000 0.02670  0.35564  0.91790  Biso   1.000  C
  C149     1.0000 0.04320  0.39190  0.90070  Biso   1.000  C
  H169     1.0000 0.06580  0.40400  0.86600  Biso   1.000  H
  C150     1.0000 0.02650  0.41040  0.93420  Biso   1.000  C
  H170     1.0000 0.03770  0.43520  0.92240  Biso   1.000  H
  N15      1.0000 0.99330  0.39265  0.98500  Biso   1.000  N
  C151     1.0000 0.97680  0.35640  0.00220  Biso   1.000  C
  H171     1.0000 0.95410  0.34420  0.03680  Biso   1.000  H
  C152     1.0000 0.99350  0.33790  0.96860  Biso   1.000  C
  H172     1.0000 0.98220  0.31300  0.98040  Biso   1.000  H
  N16      1.0000 0.15270  0.30750  0.47140  Biso   1.000  N
  Zn5      1.0000 0.88880  0.71685  0.17878  Biso   1.000  Zn
  Zn6      1.0000 0.71353  0.82585  0.59589  Biso   1.000  Zn
  N17      1.0000 0.88740  0.66730  0.20310  Biso   1.000  N
  N18      1.0000 0.84310  0.69160  0.26720  Biso   1.000  N
  N19      1.0000 0.65980  0.78190  0.58530  Biso   1.000  N
  O9       1.0000 0.90430  0.71950  0.02040  Biso   1.000  O
  O10      1.0000 0.87880  0.75560  0.15300  Biso   1.000  O
  O11      1.0000 0.75070  0.87500  0.62370  Biso   1.000  O
  O12      1.0000 0.71940  0.81150  0.75020  Biso   1.000  O
  N20      1.0000 0.00790  0.61250  0.78430  Biso   1.000  N
  C153     1.0000 0.02390  0.64900  0.77690  Biso   1.000  C
  H173     1.0000 0.04750  0.66250  0.74950  Biso   1.000  H
  C154     1.0000 0.00560  0.66590  0.80980  Biso   1.000  C
  H174     1.0000 0.01650  0.69090  0.80470  Biso   1.000  H
  C155     1.0000 0.97110  0.64620  0.85000  Biso   1.000  C
  C156     1.0000 0.95510  0.60970  0.85730  Biso   1.000  C
  H175     1.0000 0.93160  0.59630  0.88480  Biso   1.000  H
  C157     1.0000 0.97350  0.59280  0.82450  Biso   1.000  C
  H176     1.0000 0.96250  0.56780  0.82950  Biso   1.000  H
  C158     1.0000 0.96610  0.76020  0.87440  Biso   1.000  C
  C159     1.0000 0.95261  0.66640  0.89230  Biso   1.000  C
  C160     1.0000 0.92415  0.64975  0.96660  Biso   1.000  C
  H177     1.0000 0.91560  0.62590  0.98830  Biso   1.000  H
  C161     1.0000 0.90817  0.66797  0.00940  Biso   1.000  C
  C162     1.0000 0.92064  0.70290  0.97770  Biso   1.000  C
  C163     1.0000 0.94913  0.71958  0.90330  Biso   1.000  C
  C164     1.0000 0.96520  0.70140  0.86060  Biso   1.000  C
  H178     1.0000 0.98470  0.71280  0.80970  Biso   1.000  H
  C165     1.0000 0.97890  0.78350  0.98180  Biso   1.000  C
  H179     1.0000 0.95920  0.77630  0.03510  Biso   1.000  H
  H180     1.0000 0.99770  0.78100  0.01870  Biso   1.000  H
  H181     1.0000 0.98820  0.80830  0.96010  Biso   1.000  H
  C166     1.0000 0.93820  0.76530  0.80890  Biso   1.000  C
  H182     1.0000 0.93050  0.75020  0.74090  Biso   1.000  H
  H183     1.0000 0.91790  0.75900  0.85880  Biso   1.000  H
  H184     1.0000 0.94860  0.79010  0.78550  Biso   1.000  H
  C167     1.0000 0.99770  0.77250  0.79340  Biso   1.000  C
  H185     1.0000 0.99030  0.75810  0.72390  Biso   1.000  H
  H186     1.0000 0.00690  0.79740  0.77310  Biso   1.000  H
  H187     1.0000 0.01640  0.77010  0.83170  Biso   1.000  H
  C168     1.0000 0.87690  0.64880  0.08780  Biso   1.000  C
  H188     1.0000 0.87070  0.62380  0.09580  Biso   1.000  H
  H189     1.0000 0.85620  0.64950  0.05650  Biso   1.000  H
  C169     1.0000 0.86540  0.64990  0.30150  Biso   1.000  C
  H190     1.0000 0.87910  0.66430  0.36910  Biso   1.000  H
  C170     1.0000 0.85720  0.61300  0.32630  Biso   1.000  C
  H191     1.0000 0.87940  0.61220  0.32950  Biso   1.000  H
  H192     1.0000 0.84230  0.59710  0.26420  Biso   1.000  H
  C171     1.0000 0.83760  0.60040  0.44080  Biso   1.000  C
  H193     1.0000 0.83220  0.57600  0.45660  Biso   1.000  H
  H194     1.0000 0.85260  0.61580  0.50350  Biso   1.000  H
  C172     1.0000 0.80430  0.60180  0.43450  Biso   1.000  C
  H195     1.0000 0.78840  0.58460  0.37660  Biso   1.000  H
  H196     1.0000 0.79220  0.59490  0.50950  Biso   1.000  H
  C173     1.0000 0.81110  0.63750  0.40380  Biso   1.000  C
  H197     1.0000 0.78810  0.63660  0.39660  Biso   1.000  H
  H198     1.0000 0.82400  0.65370  0.46780  Biso   1.000  H
  C174     1.0000 0.83130  0.65280  0.29750  Biso   1.000  C
  H199     1.0000 0.81660  0.63780  0.23250  Biso   1.000  H
  C175     1.0000 0.82947  0.73838  0.28110  Biso   1.000  C
  C176     1.0000 0.80650  0.74710  0.33520  Biso   1.000  C
  H200     1.0000 0.78870  0.73060  0.38500  Biso   1.000  H
  C177     1.0000 0.80963  0.77990  0.31650  Biso   1.000  C
  C178     1.0000 0.83571  0.80406  0.24360  Biso   1.000  C
  H201     1.0000 0.83780  0.82650  0.23080  Biso   1.000  H
  C179     1.0000 0.85860  0.79530  0.18950  Biso   1.000  C
  C180     1.0000 0.85551  0.76250  0.20820  Biso   1.000  C
  C181     1.0000 0.88750  0.82350  0.10840  Biso   1.000  C
  C182     1.0000 0.88280  0.80750  0.98640  Biso   1.000  C
  H202     1.0000 0.88410  0.78580  0.99020  Biso   1.000  H
  H203     1.0000 0.85960  0.80200  0.95580  Biso   1.000  H
  H204     1.0000 0.90140  0.82450  0.93620  Biso   1.000  H
  C183     1.0000 0.92390  0.83420  0.15310  Biso   1.000  C
  H205     1.0000 0.92660  0.81330  0.15930  Biso   1.000  H
  H206     1.0000 0.94180  0.85120  0.10030  Biso   1.000  H
  H207     1.0000 0.92710  0.84510  0.22870  Biso   1.000  H
  C184     1.0000 0.88540  0.85660  0.10100  Biso   1.000  C
  H208     1.0000 0.86210  0.85100  0.07250  Biso   1.000  H
  H209     1.0000 0.88910  0.86730  0.17740  Biso   1.000  H
  H210     1.0000 0.90370  0.87330  0.04900  Biso   1.000  H
  C185     1.0000 0.78480  0.78990  0.38120  Biso   1.000  C
  C186     1.0000 0.76060  0.76670  0.46060  Biso   1.000  C
  H211     1.0000 0.75940  0.74480  0.47570  Biso   1.000  H
  C187     1.0000 0.73830  0.77570  0.51780  Biso   1.000  C
  H212     1.0000 0.72190  0.75990  0.57200  Biso   1.000  H
  N21      1.0000 0.74020  0.80780  0.49560  Biso   1.000  N
  C188     1.0000 0.76441  0.83100  0.41630  Biso   1.000  C
  H213     1.0000 0.76570  0.85300  0.40110  Biso   1.000  H
  C189     1.0000 0.78670  0.82200  0.35900  Biso   1.000  C
  H214     1.0000 0.80320  0.83790  0.30480  Biso   1.000  H
  C190     1.0000 0.81800  0.93180  0.68450  Biso   1.000  C
  N22      1.0000 0.81207  0.06547  0.27910  Biso   1.000  N
  C191     1.0000 0.83255  0.06465  0.36880  Biso   1.000  C
  H215     1.0000 0.85380  0.08540  0.38910  Biso   1.000  H
  C192     1.0000 0.82180  0.03340  0.42870  Biso   1.000  C
  H216     1.0000 0.83580  0.03290  0.49000  Biso   1.000  H
  C193     1.0000 0.79066  0.00306  0.39890  Biso   1.000  C
  C194     1.0000 0.77019  0.00389  0.30930  Biso   1.000  C
  H217     1.0000 0.74890  0.98310  0.28890  Biso   1.000  H
  C195     1.0000 0.78090  0.03510  0.24930  Biso   1.000  C
  H218     1.0000 0.76690  0.03570  0.18800  Biso   1.000  H
  C196     1.0000 0.79930  0.92060  0.80050  Biso   1.000  C
  H219     1.0000 0.79350  0.93830  0.82700  Biso   1.000  H
  H220     1.0000 0.77750  0.89770  0.79240  Biso   1.000  H
  H221     1.0000 0.81480  0.91840  0.85630  Biso   1.000  H
  C197     1.0000 0.77952  0.96832  0.46060  Biso   1.000  C
  C198     1.0000 0.74740  0.93830  0.43590  Biso   1.000  C
  H222     1.0000 0.73190  0.93950  0.38130  Biso   1.000  H
  C199     1.0000 0.73796  0.90666  0.49110  Biso   1.000  C
  C200     1.0000 0.76069  0.90499  0.57100  Biso   1.000  C
  C201     1.0000 0.79280  0.93500  0.59570  Biso   1.000  C
  C202     1.0000 0.80215  0.96665  0.54050  Biso   1.000  C
  H223     1.0000 0.82410  0.98710  0.55730  Biso   1.000  H
  C203     1.0000 0.82660  0.90460  0.64630  Biso   1.000  C
  H224     1.0000 0.83860  0.91140  0.57210  Biso   1.000  H
  H225     1.0000 0.84210  0.90250  0.70270  Biso   1.000  H
  H226     1.0000 0.80470  0.88180  0.63880  Biso   1.000  H
  C204     1.0000 0.85330  0.96860  0.69990  Biso   1.000  C
  H227     1.0000 0.84750  0.98650  0.72510  Biso   1.000  H
  H228     1.0000 0.86830  0.96620  0.75740  Biso   1.000  H
  H229     1.0000 0.86600  0.97590  0.62680  Biso   1.000  H
  C205     1.0000 0.70630  0.87760  0.44950  Biso   1.000  C
  H230     1.0000 0.69350  0.88350  0.39690  Biso   1.000  H
  C206     1.0000 0.66110  0.81750  0.41900  Biso   1.000  C
  H231     1.0000 0.66870  0.80400  0.36870  Biso   1.000  H
  C207     1.0000 0.63900  0.82730  0.34610  Biso   1.000  C
  H232     1.0000 0.65370  0.84290  0.28330  Biso   1.000  H
  H233     1.0000 0.63090  0.84080  0.39310  Biso   1.000  H
  C208     1.0000 0.60610  0.79460  0.29370  Biso   1.000  C
  H234     1.0000 0.59110  0.80240  0.25470  Biso   1.000  H
  H235     1.0000 0.61400  0.78350  0.23570  Biso   1.000  H
  C209     1.0000 0.58540  0.76860  0.38090  Biso   1.000  C
  H236     1.0000 0.56750  0.74680  0.34200  Biso   1.000  H
  H237     1.0000 0.57260  0.77780  0.42590  Biso   1.000  H
  C210     1.0000 0.60560  0.75900  0.46170  Biso   1.000  C
  H238     1.0000 0.61370  0.74450  0.42100  Biso   1.000  H
  H239     1.0000 0.58970  0.74450  0.52460  Biso   1.000  H
  C211     1.0000 0.63780  0.79200  0.51250  Biso   1.000  C
  H240     1.0000 0.62900  0.80460  0.56220  Biso   1.000  H
  C212     1.0000 0.64520  0.76870  0.69200  Biso   1.000  C
  H241     1.0000 0.62100  0.74860  0.68070  Biso   1.000  H
  H242     1.0000 0.64310  0.78720  0.73390  Biso   1.000  H
  C213     1.0000 0.66531  0.75620  0.76700  Biso   1.000  C
  C214     1.0000 0.70108  0.77768  0.79070  Biso   1.000  C
  C215     1.0000 0.71850  0.76510  0.85850  Biso   1.000  C
  C216     1.0000 0.70019  0.73100  0.90260  Biso   1.000  C
  H243     1.0000 0.71210  0.72240  0.94890  Biso   1.000  H
  C217     1.0000 0.66444  0.70954  0.87890  Biso   1.000  C
  C218     1.0000 0.64705  0.72215  0.81110  Biso   1.000  C
  H244     1.0000 0.62260  0.70750  0.79490  Biso   1.000  H
  C219     1.0000 0.75780  0.78870  0.89090  Biso   1.000  C
  C220     1.0000 0.82230  0.70180  0.30160  Biso   1.000  C
  H245     1.0000 0.80160  0.68570  0.34180  Biso   1.000  H
  C221     1.0000 0.76300  0.82040  0.94950  Biso   1.000  C
  H246     1.0000 0.78800  0.83520  0.96970  Biso   1.000  H
  H247     1.0000 0.75590  0.83360  0.89890  Biso   1.000  H
  H248     1.0000 0.74860  0.81360  0.01920  Biso   1.000  H
  C222     1.0000 0.78090  0.80000  0.78010  Biso   1.000  C
  H249     1.0000 0.77780  0.77900  0.73990  Biso   1.000  H
  H250     1.0000 0.77370  0.81330  0.73010  Biso   1.000  H
  H251     1.0000 0.80590  0.81500  0.80090  Biso   1.000  H
  C223     1.0000 0.77220  0.76890  0.96500  Biso   1.000  C
  H252     1.0000 0.76860  0.74780  0.92430  Biso   1.000  H
  H253     1.0000 0.79750  0.78450  0.97900  Biso   1.000  H
  H254     1.0000 0.75960  0.76210  0.03820  Biso   1.000  H
  C224     1.0000 0.64436  0.67106  0.91790  Biso   1.000  C
  C225     1.0000 0.60810  0.65130  0.90070  Biso   1.000  C
  H255     1.0000 0.59600  0.66180  0.86600  Biso   1.000  H
  C226     1.0000 0.58960  0.61610  0.93420  Biso   1.000  C
  H256     1.0000 0.56480  0.60250  0.92240  Biso   1.000  H
  N23      1.0000 0.60735  0.60065  0.98500  Biso   1.000  N
  C227     1.0000 0.64360  0.62040  0.00220  Biso   1.000  C
  H257     1.0000 0.65580  0.60990  0.03680  Biso   1.000  H
  C228     1.0000 0.66210  0.65560  0.96860  Biso   1.000  C
  H258     1.0000 0.68700  0.66920  0.98040  Biso   1.000  H
  N24      1.0000 0.69250  0.84520  0.47140  Biso   1.000  N
  Zn7      1.0000 0.94982  0.50528  0.51211  Biso   1.000  Zn
  Zn8      1.0000 0.84082  0.22101  0.92922  Biso   1.000  Zn
  N25      1.0000 0.99937  0.55343  0.53643  Biso   1.000  N
  N26      1.0000 0.97507  0.48483  0.60053  Biso   1.000  N
  N27      1.0000 0.88477  0.21123  0.91863  Biso   1.000  N
  O13      1.0000 0.94717  0.51813  0.35373  Biso   1.000  O
  O14      1.0000 0.91107  0.45653  0.48633  Biso   1.000  O
  O15      1.0000 0.79167  0.20903  0.95703  Biso   1.000  O
  O16      1.0000 0.85517  0.24123  0.08353  Biso   1.000  O
  N28      1.0000 0.05417  0.72873  0.11763  Biso   1.000  N
  C229     1.0000 0.01767  0.70823  0.11023  Biso   1.000  C
  H259     1.0000 0.00417  0.71833  0.08283  Biso   1.000  H
  C230     1.0000 0.00077  0.67303  0.14313  Biso   1.000  C
  H260     1.0000 0.97577  0.65893  0.13803  Biso   1.000  H
  C231     1.0000 0.02047  0.65823  0.18333  Biso   1.000  C
  C232     1.0000 0.05697  0.67873  0.19063  Biso   1.000  C
  H261     1.0000 0.07037  0.66863  0.21813  Biso   1.000  H
  C233     1.0000 0.07387  0.71403  0.15783  Biso   1.000  C
  H262     1.0000 0.09887  0.72803  0.16283  Biso   1.000  H
  C234     1.0000 0.90647  0.53923  0.20773  Biso   1.000  C
  C235     1.0000 0.00027  0.61954  0.22563  Biso   1.000  C
  C236     1.0000 0.01692  0.60773  0.29993  Biso   1.000  C
  H263     1.0000 0.04077  0.62303  0.32163  Biso   1.000  H
  C237     1.0000 0.99870  0.57353  0.34273  Biso   1.000  C
  C238     1.0000 0.96377  0.55107  0.31103  Biso   1.000  C
  C239     1.0000 0.94709  0.56288  0.23663  Biso   1.000  C
  C240     1.0000 0.96527  0.59713  0.19393  Biso   1.000  C
  H264     1.0000 0.95387  0.60523  0.14303  Biso   1.000  H
  C241     1.0000 0.88317  0.52873  0.31513  Biso   1.000  C
  H265     1.0000 0.89037  0.51623  0.36843  Biso   1.000  H
  H266     1.0000 0.88567  0.55003  0.35203  Biso   1.000  H
  H267     1.0000 0.85837  0.51323  0.29343  Biso   1.000  H
  C242     1.0000 0.90137  0.50623  0.14223  Biso   1.000  C
  H268     1.0000 0.91647  0.51363  0.07423  Biso   1.000  H
  H269     1.0000 0.90767  0.49223  0.19213  Biso   1.000  H
  H270     1.0000 0.87657  0.49183  0.11883  Biso   1.000  H
  C243     1.0000 0.89417  0.55853  0.12673  Biso   1.000  C
  H271     1.0000 0.90857  0.56553  0.05723  Biso   1.000  H
  H272     1.0000 0.86927  0.54283  0.10643  Biso   1.000  H
  H273     1.0000 0.89657  0.57963  0.16503  Biso   1.000  H
  C244     1.0000 0.01787  0.56143  0.42113  Biso   1.000  C
  H274     1.0000 0.04287  0.58023  0.42913  Biso   1.000  H
  H275     1.0000 0.01717  0.54003  0.38983  Biso   1.000  H
  C245     1.0000 0.01677  0.54883  0.63483  Biso   1.000  C
  H276     1.0000 0.00237  0.54813  0.70243  Biso   1.000  H
  C246     1.0000 0.05367  0.57753  0.65963  Biso   1.000  C
  H277     1.0000 0.05447  0.60053  0.66283  Biso   1.000  H
  H278     1.0000 0.06957  0.57853  0.59753  Biso   1.000  H
  C247     1.0000 0.06627  0.57053  0.77413  Biso   1.000  C
  H279     1.0000 0.09067  0.58953  0.78993  Biso   1.000  H
  H280     1.0000 0.05087  0.57013  0.83683  Biso   1.000  H
  C248     1.0000 0.06487  0.53583  0.76783  Biso   1.000  C
  H281     1.0000 0.08207  0.53713  0.70993  Biso   1.000  H
  H282     1.0000 0.07177  0.53063  0.84283  Biso   1.000  H
  C249     1.0000 0.02917  0.50693  0.73713  Biso   1.000  C
  H283     1.0000 0.03007  0.48483  0.72993  Biso   1.000  H
  H284     1.0000 0.01297  0.50363  0.80113  Biso   1.000  H
  C250     1.0000 0.01387  0.51183  0.63083  Biso   1.000  C
  H285     1.0000 0.02887  0.51213  0.56583  Biso   1.000  H
  C251     1.0000 0.92829  0.42442  0.61443  Biso   1.000  C
  C252     1.0000 0.91957  0.39273  0.66853  Biso   1.000  C
  H286     1.0000 0.93607  0.39143  0.71833  Biso   1.000  H
  C253     1.0000 0.88677  0.36306  0.64983  Biso   1.000  C
  C254     1.0000 0.86261  0.36498  0.57693  Biso   1.000  C
  H287     1.0000 0.84017  0.34463  0.56413  Biso   1.000  H
  C255     1.0000 0.87137  0.39663  0.52283  Biso   1.000  C
  C256     1.0000 0.90417  0.42634  0.54153  Biso   1.000  C
  C257     1.0000 0.84317  0.39733  0.44173  Biso   1.000  C
  C258     1.0000 0.85917  0.40863  0.31973  Biso   1.000  C
  H288     1.0000 0.88087  0.43163  0.32353  Biso   1.000  H
  H289     1.0000 0.86467  0.39093  0.28913  Biso   1.000  H
  H290     1.0000 0.84217  0.41023  0.26953  Biso   1.000  H
  C259     1.0000 0.83247  0.42303  0.48643  Biso   1.000  C
  H291     1.0000 0.85337  0.44663  0.49263  Biso   1.000  H
  H292     1.0000 0.81547  0.42393  0.43363  Biso   1.000  H
  H293     1.0000 0.82157  0.41533  0.56203  Biso   1.000  H
  C260     1.0000 0.81007  0.36213  0.43433  Biso   1.000  C
  H294     1.0000 0.81567  0.34443  0.40583  Biso   1.000  H
  H295     1.0000 0.79937  0.35513  0.51073  Biso   1.000  H
  H296     1.0000 0.79337  0.36373  0.38233  Biso   1.000  H
  C261     1.0000 0.87677  0.32823  0.71453  Biso   1.000  C
  C262     1.0000 0.89997  0.32723  0.79393  Biso   1.000  C
  H297     1.0000 0.92187  0.34793  0.80903  Biso   1.000  H
  C263     1.0000 0.89097  0.29593  0.85113  Biso   1.000  C
  H298     1.0000 0.90677  0.29533  0.90533  Biso   1.000  H
  N29      1.0000 0.85887  0.26573  0.82893  Biso   1.000  N
  C264     1.0000 0.83567  0.26674  0.74963  Biso   1.000  C
  H299     1.0000 0.81367  0.24603  0.73443  Biso   1.000  H
  C265     1.0000 0.84467  0.29803  0.69233  Biso   1.000  C
  H300     1.0000 0.82877  0.29863  0.63813  Biso   1.000  H
  C266     1.0000 0.73487  0.21953  0.01783  Biso   1.000  C
  N30      1.0000 0.60120  0.07993  0.61243  Biso   1.000  N
  C267     1.0000 0.60202  0.10123  0.70213  Biso   1.000  C
  H301     1.0000 0.58127  0.10173  0.72243  Biso   1.000  H
  C268     1.0000 0.63327  0.12173  0.76203  Biso   1.000  C
  H302     1.0000 0.63377  0.13623  0.82333  Biso   1.000  H
  C269     1.0000 0.66361  0.12093  0.73223  Biso   1.000  C
  C270     1.0000 0.66278  0.09963  0.64263  Biso   1.000  C
  H303     1.0000 0.68357  0.09913  0.62223  Biso   1.000  H
  C271     1.0000 0.63157  0.07913  0.58263  Biso   1.000  C
  H304     1.0000 0.63097  0.06453  0.52133  Biso   1.000  H
  C272     1.0000 0.74607  0.21203  0.13383  Biso   1.000  C
  H305     1.0000 0.72837  0.18853  0.16033  Biso   1.000  H
  H306     1.0000 0.76897  0.21313  0.12573  Biso   1.000  H
  H307     1.0000 0.74827  0.22973  0.18963  Biso   1.000  H
  C273     1.0000 0.69835  0.14453  0.79393  Biso   1.000  C
  C274     1.0000 0.72837  0.14243  0.76923  Biso   1.000  C
  H308     1.0000 0.72717  0.12573  0.71463  Biso   1.000  H
  C275     1.0000 0.76001  0.16463  0.82443  Biso   1.000  C
  C276     1.0000 0.76168  0.18903  0.90433  Biso   1.000  C
  C277     1.0000 0.73167  0.19113  0.92903  Biso   1.000  C
  C278     1.0000 0.70002  0.16883  0.87383  Biso   1.000  C
  H309     1.0000 0.67957  0.17033  0.89063  Biso   1.000  H
  C279     1.0000 0.76207  0.25533  0.97963  Biso   1.000  C
  H310     1.0000 0.75527  0.26053  0.90543  Biso   1.000  H
  H311     1.0000 0.76417  0.27293  0.03603  Biso   1.000  H
  H312     1.0000 0.78487  0.25623  0.97213  Biso   1.000  H
  C280     1.0000 0.69807  0.21803  0.03323  Biso   1.000  C
  H313     1.0000 0.68017  0.19433  0.05843  Biso   1.000  H
  H314     1.0000 0.70047  0.23543  0.09073  Biso   1.000  H
  H315     1.0000 0.69077  0.22343  0.96013  Biso   1.000  H
  C281     1.0000 0.78907  0.16203  0.78283  Biso   1.000  C
  H316     1.0000 0.78317  0.14333  0.73023  Biso   1.000  H
  C282     1.0000 0.84917  0.17693  0.75233  Biso   1.000  C
  H317     1.0000 0.86267  0.19803  0.70203  Biso   1.000  H
  C283     1.0000 0.83937  0.14503  0.67943  Biso   1.000  C
  H318     1.0000 0.82377  0.14413  0.61663  Biso   1.000  H
  H319     1.0000 0.82587  0.12343  0.72643  Biso   1.000  H
  C284     1.0000 0.87207  0.14483  0.62703  Biso   1.000  C
  H320     1.0000 0.86427  0.12203  0.58803  Biso   1.000  H
  H321     1.0000 0.88317  0.16383  0.56903  Biso   1.000  H
  C285     1.0000 0.89807  0.15013  0.71423  Biso   1.000  C
  H322     1.0000 0.91987  0.15403  0.67533  Biso   1.000  H
  H323     1.0000 0.88887  0.12813  0.75923  Biso   1.000  H
  C286     1.0000 0.90767  0.17993  0.79503  Biso   1.000  C
  H324     1.0000 0.92217  0.20253  0.75433  Biso   1.000  H
  H325     1.0000 0.92217  0.17853  0.85793  Biso   1.000  H
  C287     1.0000 0.87467  0.17913  0.84583  Biso   1.000  C
  H326     1.0000 0.86207  0.15773  0.89553  Biso   1.000  H
  C288     1.0000 0.89797  0.20983  0.02533  Biso   1.000  C
  H327     1.0000 0.91807  0.20573  0.01403  Biso   1.000  H
  H328     1.0000 0.87947  0.18923  0.06723  Biso   1.000  H
  C289     1.0000 0.91047  0.24244  0.10033  Biso   1.000  C
  C290     1.0000 0.88899  0.25673  0.12403  Biso   1.000  C
  C291     1.0000 0.90157  0.28673  0.19183  Biso   1.000  C
  C292     1.0000 0.93567  0.30252  0.23593  Biso   1.000  C
  H329     1.0000 0.94427  0.32303  0.28223  Biso   1.000  H
  C293     1.0000 0.95713  0.28823  0.21223  Biso   1.000  C
  C294     1.0000 0.94452  0.25823  0.14443  Biso   1.000  C
  H330     1.0000 0.95917  0.24843  0.12823  Biso   1.000  H
  C295     1.0000 0.87797  0.30243  0.22423  Biso   1.000  C
  C296     1.0000 0.96487  0.45383  0.63493  Biso   1.000  C
  H331     1.0000 0.98097  0.44923  0.67513  Biso   1.000  H
  C297     1.0000 0.84627  0.27593  0.28283  Biso   1.000  C
  H332     1.0000 0.83147  0.28613  0.30303  Biso   1.000  H
  H333     1.0000 0.83307  0.25563  0.23223  Biso   1.000  H
  H334     1.0000 0.85307  0.26833  0.35253  Biso   1.000  H
  C298     1.0000 0.86667  0.31423  0.11343  Biso   1.000  C
  H335     1.0000 0.88767  0.33213  0.07323  Biso   1.000  H
  H336     1.0000 0.85337  0.29373  0.06343  Biso   1.000  H
  H337     1.0000 0.85167  0.32423  0.13423  Biso   1.000  H
  C299     1.0000 0.89777  0.33663  0.29833  Biso   1.000  C
  H338     1.0000 0.91887  0.35413  0.25763  Biso   1.000  H
  H339     1.0000 0.88217  0.34633  0.31233  Biso   1.000  H
  H340     1.0000 0.90457  0.33083  0.37153  Biso   1.000  H
  C300     1.0000 0.99561  0.30663  0.25123  Biso   1.000  C
  C301     1.0000 0.01537  0.29013  0.23403  Biso   1.000  C
  H341     1.0000 0.00487  0.26753  0.19933  Biso   1.000  H
  C302     1.0000 0.05057  0.30683  0.26753  Biso   1.000  C
  H342     1.0000 0.06417  0.29563  0.25573  Biso   1.000  H
  N31      1.0000 0.06602  0.34003  0.31833  Biso   1.000  N
  C303     1.0000 0.04627  0.35653  0.33553  Biso   1.000  C
  H343     1.0000 0.05677  0.37923  0.37013  Biso   1.000  H
  C304     1.0000 0.01107  0.33983  0.30193  Biso   1.000  C
  H344     1.0000 0.99747  0.35113  0.31373  Biso   1.000  H
  N32      1.0000 0.82147  0.18063  0.80473  Biso   1.000  N
  Zn9      1.0000 0.49472  0.44453  0.51211  Biso   1.000  Zn
  Zn10     1.0000 0.77899  0.61980  0.92922  Biso   1.000  Zn
  N33      1.0000 0.44657  0.44593  0.53643  Biso   1.000  N
  N34      1.0000 0.51517  0.49023  0.60053  Biso   1.000  N
  N35      1.0000 0.78877  0.67353  0.91863  Biso   1.000  N
  O17      1.0000 0.48187  0.42903  0.35373  Biso   1.000  O
  O18      1.0000 0.54347  0.45453  0.48633  Biso   1.000  O
  O19      1.0000 0.79097  0.58263  0.95703  Biso   1.000  O
  O20      1.0000 0.75877  0.61393  0.08353  Biso   1.000  O
  N36      1.0000 0.27127  0.32543  0.11763  Biso   1.000  N
  C305     1.0000 0.29177  0.30943  0.11023  Biso   1.000  C
  H345     1.0000 0.28167  0.28583  0.08283  Biso   1.000  H
  C306     1.0000 0.32697  0.32773  0.14313  Biso   1.000  C
  H346     1.0000 0.34107  0.31683  0.13803  Biso   1.000  H
  C307     1.0000 0.34177  0.36223  0.18333  Biso   1.000  C
  C308     1.0000 0.32127  0.37823  0.19063  Biso   1.000  C
  H347     1.0000 0.33137  0.40173  0.21813  Biso   1.000  H
  C309     1.0000 0.28597  0.35983  0.15783  Biso   1.000  C
  H348     1.0000 0.27197  0.37083  0.16283  Biso   1.000  H
  C310     1.0000 0.46077  0.36723  0.20773  Biso   1.000  C
  C311     1.0000 0.38046  0.38072  0.22563  Biso   1.000  C
  C312     1.0000 0.39227  0.40918  0.29993  Biso   1.000  C
  H349     1.0000 0.37697  0.41773  0.32163  Biso   1.000  H
  C313     1.0000 0.42647  0.42516  0.34273  Biso   1.000  C
  C314     1.0000 0.44893  0.41269  0.31103  Biso   1.000  C
  C315     1.0000 0.43712  0.38420  0.23663  Biso   1.000  C
  C316     1.0000 0.40287  0.36813  0.19393  Biso   1.000  C
  H350     1.0000 0.39477  0.34863  0.14303  Biso   1.000  H
  C317     1.0000 0.47127  0.35443  0.31513  Biso   1.000  C
  H351     1.0000 0.48377  0.37413  0.36843  Biso   1.000  H
  H352     1.0000 0.44997  0.33563  0.35203  Biso   1.000  H
  H353     1.0000 0.48677  0.34513  0.29343  Biso   1.000  H
  C318     1.0000 0.49377  0.39513  0.14223  Biso   1.000  C
  H354     1.0000 0.48637  0.40283  0.07423  Biso   1.000  H
  H355     1.0000 0.50777  0.41543  0.19213  Biso   1.000  H
  H356     1.0000 0.50817  0.38473  0.11883  Biso   1.000  H
  C319     1.0000 0.44147  0.33563  0.12673  Biso   1.000  C
  H357     1.0000 0.43447  0.34303  0.05723  Biso   1.000  H
  H358     1.0000 0.45717  0.32643  0.10643  Biso   1.000  H
  H359     1.0000 0.42037  0.31693  0.16503  Biso   1.000  H
  C320     1.0000 0.43857  0.45643  0.42113  Biso   1.000  C
  H360     1.0000 0.41977  0.46263  0.42913  Biso   1.000  H
  H361     1.0000 0.45997  0.47713  0.38983  Biso   1.000  H
  C321     1.0000 0.45117  0.46793  0.63483  Biso   1.000  C
  H362     1.0000 0.45187  0.45423  0.70243  Biso   1.000  H
  C322     1.0000 0.42247  0.47613  0.65963  Biso   1.000  C
  H363     1.0000 0.39947  0.45393  0.66283  Biso   1.000  H
  H364     1.0000 0.42147  0.49103  0.59753  Biso   1.000  H
  C323     1.0000 0.42947  0.49573  0.77413  Biso   1.000  C
  H365     1.0000 0.41047  0.50113  0.78993  Biso   1.000  H
  H366     1.0000 0.42987  0.48073  0.83683  Biso   1.000  H
  C324     1.0000 0.46417  0.52903  0.76783  Biso   1.000  C
  H367     1.0000 0.46287  0.54493  0.70993  Biso   1.000  H
  H368     1.0000 0.46937  0.54113  0.84283  Biso   1.000  H
  C325     1.0000 0.49307  0.52223  0.73713  Biso   1.000  C
  H369     1.0000 0.51517  0.54523  0.72993  Biso   1.000  H
  H370     1.0000 0.49637  0.50933  0.80113  Biso   1.000  H
  C326     1.0000 0.48817  0.50203  0.63083  Biso   1.000  C
  H371     1.0000 0.48787  0.51673  0.56583  Biso   1.000  H
  C327     1.0000 0.57558  0.50386  0.61443  Biso   1.000  C
  C328     1.0000 0.60727  0.52683  0.66853  Biso   1.000  C
  H372     1.0000 0.60857  0.54463  0.71833  Biso   1.000  H
  C329     1.0000 0.63694  0.52370  0.64983  Biso   1.000  C
  C330     1.0000 0.63502  0.49762  0.57693  Biso   1.000  C
  H373     1.0000 0.65537  0.49553  0.56413  Biso   1.000  H
  C331     1.0000 0.60337  0.47473  0.52283  Biso   1.000  C
  C332     1.0000 0.57366  0.47782  0.54153  Biso   1.000  C
  C333     1.0000 0.60267  0.44583  0.44173  Biso   1.000  C
  C334     1.0000 0.59137  0.45053  0.31973  Biso   1.000  C
  H374     1.0000 0.56837  0.44923  0.32353  Biso   1.000  H
  H375     1.0000 0.60907  0.47373  0.28913  Biso   1.000  H
  H376     1.0000 0.58977  0.43193  0.26953  Biso   1.000  H
  C335     1.0000 0.57697  0.40943  0.48643  Biso   1.000  C
  H377     1.0000 0.55337  0.40673  0.49263  Biso   1.000  H
  H378     1.0000 0.57607  0.39153  0.43363  Biso   1.000  H
  H379     1.0000 0.58467  0.40623  0.56203  Biso   1.000  H
  C336     1.0000 0.63787  0.44793  0.43433  Biso   1.000  C
  H380     1.0000 0.65557  0.47123  0.40583  Biso   1.000  H
  H381     1.0000 0.64487  0.44423  0.51073  Biso   1.000  H
  H382     1.0000 0.63627  0.42963  0.38233  Biso   1.000  H
  C337     1.0000 0.67177  0.54853  0.71453  Biso   1.000  C
  C338     1.0000 0.67277  0.57273  0.79393  Biso   1.000  C
  H383     1.0000 0.65207  0.57393  0.80903  Biso   1.000  H
  C339     1.0000 0.70407  0.59503  0.85113  Biso   1.000  C
  H384     1.0000 0.70467  0.61143  0.90533  Biso   1.000  H
  N37      1.0000 0.73427  0.59313  0.82893  Biso   1.000  N
  C340     1.0000 0.73326  0.56892  0.74963  Biso   1.000  C
  H385     1.0000 0.75397  0.56763  0.73443  Biso   1.000  H
  C341     1.0000 0.70197  0.54663  0.69233  Biso   1.000  C
  H386     1.0000 0.70137  0.53013  0.63813  Biso   1.000  H
  C342     1.0000 0.78047  0.51533  0.01783  Biso   1.000  C
  N38      1.0000 0.92007  0.52126  0.61243  Biso   1.000  N
  C343     1.0000 0.89877  0.50078  0.70213  Biso   1.000  C
  H387     1.0000 0.89827  0.47953  0.72243  Biso   1.000  H
  C344     1.0000 0.87827  0.51153  0.76203  Biso   1.000  C
  H388     1.0000 0.86377  0.49753  0.82333  Biso   1.000  H
  C345     1.0000 0.87907  0.54267  0.73223  Biso   1.000  C
  C346     1.0000 0.90037  0.56314  0.64263  Biso   1.000  C
  H389     1.0000 0.90087  0.58443  0.62223  Biso   1.000  H
  C347     1.0000 0.92087  0.55243  0.58263  Biso   1.000  C
  H390     1.0000 0.93547  0.56643  0.52133  Biso   1.000  H
  C348     1.0000 0.78797  0.53403  0.13383  Biso   1.000  C
  H391     1.0000 0.81147  0.53983  0.16033  Biso   1.000  H
  H392     1.0000 0.78687  0.55583  0.12573  Biso   1.000  H
  H393     1.0000 0.77027  0.51853  0.18963  Biso   1.000  H
  C349     1.0000 0.85547  0.55381  0.79393  Biso   1.000  C
  C350     1.0000 0.85757  0.58593  0.76923  Biso   1.000  C
  H394     1.0000 0.87427  0.60143  0.71463  Biso   1.000  H
  C351     1.0000 0.83537  0.59537  0.82443  Biso   1.000  C
  C352     1.0000 0.81097  0.57264  0.90433  Biso   1.000  C
  C353     1.0000 0.80887  0.54053  0.92903  Biso   1.000  C
  C354     1.0000 0.83117  0.53118  0.87383  Biso   1.000  C
  H395     1.0000 0.82967  0.50923  0.89063  Biso   1.000  H
  C355     1.0000 0.74467  0.50673  0.97963  Biso   1.000  C
  H396     1.0000 0.73947  0.49473  0.90543  Biso   1.000  H
  H397     1.0000 0.72707  0.49123  0.03603  Biso   1.000  H
  H398     1.0000 0.74377  0.52863  0.97213  Biso   1.000  H
  C356     1.0000 0.78197  0.48003  0.03323  Biso   1.000  C
  H399     1.0000 0.80567  0.48583  0.05843  Biso   1.000  H
  H400     1.0000 0.76457  0.46503  0.09073  Biso   1.000  H
  H401     1.0000 0.77657  0.46733  0.96013  Biso   1.000  H
  C357     1.0000 0.83797  0.62703  0.78283  Biso   1.000  C
  H402     1.0000 0.85667  0.63983  0.73023  Biso   1.000  H
  C358     1.0000 0.82307  0.67223  0.75233  Biso   1.000  C
  H403     1.0000 0.80197  0.66463  0.70203  Biso   1.000  H
  C359     1.0000 0.85497  0.69433  0.67943  Biso   1.000  C
  H404     1.0000 0.85587  0.67963  0.61663  Biso   1.000  H
  H405     1.0000 0.87657  0.70243  0.72643  Biso   1.000  H
  C360     1.0000 0.85517  0.72723  0.62703  Biso   1.000  C
  H406     1.0000 0.87797  0.74223  0.58803  Biso   1.000  H
  H407     1.0000 0.83617  0.71933  0.56903  Biso   1.000  H
  C361     1.0000 0.84987  0.74793  0.71423  Biso   1.000  C
  H408     1.0000 0.84597  0.76583  0.67533  Biso   1.000  H
  H409     1.0000 0.87187  0.76073  0.75923  Biso   1.000  H
  C362     1.0000 0.82007  0.72773  0.79503  Biso   1.000  C
  H410     1.0000 0.79747  0.71963  0.75433  Biso   1.000  H
  H411     1.0000 0.82147  0.74363  0.85793  Biso   1.000  H
  C363     1.0000 0.82087  0.69553  0.84583  Biso   1.000  C
  H412     1.0000 0.84227  0.70433  0.89553  Biso   1.000  H
  C364     1.0000 0.79017  0.68813  0.02533  Biso   1.000  C
  H413     1.0000 0.79427  0.71233  0.01403  Biso   1.000  H
  H414     1.0000 0.81077  0.69023  0.06723  Biso   1.000  H
  C365     1.0000 0.75756  0.66802  0.10033  Biso   1.000  C
  C366     1.0000 0.74327  0.63225  0.12403  Biso   1.000  C
  C367     1.0000 0.71327  0.61483  0.19183  Biso   1.000  C
  C368     1.0000 0.69748  0.63314  0.23593  Biso   1.000  C
  H415     1.0000 0.67697  0.62123  0.28223  Biso   1.000  H
  C369     1.0000 0.71177  0.66889  0.21223  Biso   1.000  C
  C370     1.0000 0.74177  0.68628  0.14443  Biso   1.000  C
  H416     1.0000 0.75157  0.71073  0.12823  Biso   1.000  H
  C371     1.0000 0.69757  0.57553  0.22423  Biso   1.000  C
  C372     1.0000 0.54617  0.51103  0.63493  Biso   1.000  C
  H417     1.0000 0.55077  0.53173  0.67513  Biso   1.000  H
  C373     1.0000 0.72407  0.57033  0.28283  Biso   1.000  C
  H418     1.0000 0.71387  0.54533  0.30303  Biso   1.000  H
  H419     1.0000 0.74437  0.57743  0.23223  Biso   1.000  H
  H420     1.0000 0.73167  0.58473  0.35253  Biso   1.000  H
  C374     1.0000 0.68577  0.55243  0.11343  Biso   1.000  C
  H421     1.0000 0.66787  0.55553  0.07323  Biso   1.000  H
  H422     1.0000 0.70627  0.55963  0.06343  Biso   1.000  H
  H423     1.0000 0.67577  0.52743  0.13423  Biso   1.000  H
  C375     1.0000 0.66337  0.56113  0.29833  Biso   1.000  C
  H424     1.0000 0.64587  0.56473  0.25763  Biso   1.000  H
  H425     1.0000 0.65367  0.53583  0.31233  Biso   1.000  H
  H426     1.0000 0.66917  0.57373  0.37153  Biso   1.000  H
  C376     1.0000 0.69337  0.68897  0.25123  Biso   1.000  C
  C377     1.0000 0.70987  0.72523  0.23403  Biso   1.000  C
  H427     1.0000 0.73247  0.73733  0.19933  Biso   1.000  H
  C378     1.0000 0.69317  0.74373  0.26753  Biso   1.000  C
  H428     1.0000 0.70437  0.76853  0.25573  Biso   1.000  H
  N39      1.0000 0.65997  0.72598  0.31833  Biso   1.000  N
  C379     1.0000 0.64347  0.68973  0.33553  Biso   1.000  C
  H429     1.0000 0.62077  0.67753  0.37013  Biso   1.000  H
  C380     1.0000 0.66017  0.67123  0.30193  Biso   1.000  C
  H430     1.0000 0.64887  0.64633  0.31373  Biso   1.000  H
  N40      1.0000 0.81937  0.64083  0.80473  Biso   1.000  N
  Zn11     1.0000 0.55547  0.05018  0.51211  Biso   1.000  Zn
  Zn12     1.0000 0.38020  0.15918  0.92922  Biso   1.000  Zn
  N41      1.0000 0.55407  0.00063  0.53643  Biso   1.000  N
  N42      1.0000 0.50977  0.02493  0.60053  Biso   1.000  N
  N43      1.0000 0.32647  0.11523  0.91863  Biso   1.000  N
  O21      1.0000 0.57097  0.05283  0.35373  Biso   1.000  O
  O22      1.0000 0.54547  0.08893  0.48633  Biso   1.000  O
  O23      1.0000 0.41737  0.20833  0.95703  Biso   1.000  O
  O24      1.0000 0.38607  0.14483  0.08353  Biso   1.000  O
  N44      1.0000 0.67457  0.94583  0.11763  Biso   1.000  N
  C381     1.0000 0.69057  0.98233  0.11023  Biso   1.000  C
  H431     1.0000 0.71417  0.99583  0.08283  Biso   1.000  H
  C382     1.0000 0.67227  0.99923  0.14313  Biso   1.000  C
  H432     1.0000 0.68317  0.02423  0.13803  Biso   1.000  H
  C383     1.0000 0.63777  0.97953  0.18333  Biso   1.000  C
  C384     1.0000 0.62177  0.94303  0.19063  Biso   1.000  C
  H433     1.0000 0.59827  0.92963  0.21813  Biso   1.000  H
  C385     1.0000 0.64017  0.92613  0.15783  Biso   1.000  C
  H434     1.0000 0.62917  0.90113  0.16283  Biso   1.000  H
  C386     1.0000 0.63277  0.09353  0.20773  Biso   1.000  C
  C387     1.0000 0.61928  0.99973  0.22563  Biso   1.000  C
  C388     1.0000 0.59082  0.98308  0.29993  Biso   1.000  C
  H435     1.0000 0.58227  0.95923  0.32163  Biso   1.000  H
  C389     1.0000 0.57484  0.00130  0.34273  Biso   1.000  C
  C390     1.0000 0.58731  0.03623  0.31103  Biso   1.000  C
  C391     1.0000 0.61580  0.05291  0.23663  Biso   1.000  C
  C392     1.0000 0.63187  0.03473  0.19393  Biso   1.000  C
  H436     1.0000 0.65137  0.04613  0.14303  Biso   1.000  H
  C393     1.0000 0.64557  0.11683  0.31513  Biso   1.000  C
  H437     1.0000 0.62587  0.10963  0.36843  Biso   1.000  H
  H438     1.0000 0.66437  0.11433  0.35203  Biso   1.000  H
  H439     1.0000 0.65487  0.14163  0.29343  Biso   1.000  H
  C394     1.0000 0.60487  0.09863  0.14223  Biso   1.000  C
  H440     1.0000 0.59717  0.08353  0.07423  Biso   1.000  H
  H441     1.0000 0.58457  0.09233  0.19213  Biso   1.000  H
  H442     1.0000 0.61527  0.12343  0.11883  Biso   1.000  H
  C395     1.0000 0.66437  0.10583  0.12673  Biso   1.000  C
  H443     1.0000 0.65697  0.09143  0.05723  Biso   1.000  H
  H444     1.0000 0.67357  0.13073  0.10643  Biso   1.000  H
  H445     1.0000 0.68307  0.10343  0.16503  Biso   1.000  H
  C396     1.0000 0.54357  0.98213  0.42113  Biso   1.000  C
  H446     1.0000 0.53737  0.95713  0.42913  Biso   1.000  H
  H447     1.0000 0.52287  0.98283  0.38983  Biso   1.000  H
  C397     1.0000 0.53207  0.98323  0.63483  Biso   1.000  C
  H448     1.0000 0.54577  0.99763  0.70243  Biso   1.000  H
  C398     1.0000 0.52387  0.94633  0.65963  Biso   1.000  C
  H449     1.0000 0.54607  0.94553  0.66283  Biso   1.000  H
  H450     1.0000 0.50897  0.93043  0.59753  Biso   1.000  H
  C399     1.0000 0.50427  0.93373  0.77413  Biso   1.000  C
  H451     1.0000 0.49887  0.90933  0.78993  Biso   1.000  H
  H452     1.0000 0.51927  0.94913  0.83683  Biso   1.000  H
  C400     1.0000 0.47097  0.93513  0.76783  Biso   1.000  C
  H453     1.0000 0.45507  0.91793  0.70993  Biso   1.000  H
  H454     1.0000 0.45887  0.92823  0.84283  Biso   1.000  H
  C401     1.0000 0.47777  0.97083  0.73713  Biso   1.000  C
  H455     1.0000 0.45477  0.96993  0.72993  Biso   1.000  H
  H456     1.0000 0.49067  0.98703  0.80113  Biso   1.000  H
  C402     1.0000 0.49797  0.98613  0.63083  Biso   1.000  C
  H457     1.0000 0.48327  0.97113  0.56583  Biso   1.000  H
  C403     1.0000 0.49614  0.07171  0.61443  Biso   1.000  C
  C404     1.0000 0.47317  0.08043  0.66853  Biso   1.000  C
  H458     1.0000 0.45537  0.06393  0.71833  Biso   1.000  H
  C405     1.0000 0.47630  0.11323  0.64983  Biso   1.000  C
  C406     1.0000 0.50238  0.13739  0.57693  Biso   1.000  C
  H459     1.0000 0.50447  0.15983  0.56413  Biso   1.000  H
  C407     1.0000 0.52527  0.12863  0.52283  Biso   1.000  C
  C408     1.0000 0.52218  0.09583  0.54153  Biso   1.000  C
  C409     1.0000 0.55417  0.15683  0.44173  Biso   1.000  C
  C410     1.0000 0.54947  0.14083  0.31973  Biso   1.000  C
  H460     1.0000 0.55077  0.11913  0.32353  Biso   1.000  H
  H461     1.0000 0.52627  0.13533  0.28913  Biso   1.000  H
  H462     1.0000 0.56807  0.15783  0.26953  Biso   1.000  H
  C411     1.0000 0.59057  0.16753  0.48643  Biso   1.000  C
  H463     1.0000 0.59327  0.14663  0.49263  Biso   1.000  H
  H464     1.0000 0.60847  0.18453  0.43363  Biso   1.000  H
  H465     1.0000 0.59377  0.17843  0.56203  Biso   1.000  H
  C412     1.0000 0.55207  0.18993  0.43433  Biso   1.000  C
  H466     1.0000 0.52877  0.18433  0.40583  Biso   1.000  H
  H467     1.0000 0.55577  0.20063  0.51073  Biso   1.000  H
  H468     1.0000 0.57037  0.20663  0.38233  Biso   1.000  H
  C413     1.0000 0.45147  0.12323  0.71453  Biso   1.000  C
  C414     1.0000 0.42727  0.10003  0.79393  Biso   1.000  C
  H469     1.0000 0.42607  0.07813  0.80903  Biso   1.000  H
  C415     1.0000 0.40497  0.10903  0.85113  Biso   1.000  C
  H470     1.0000 0.38857  0.09323  0.90533  Biso   1.000  H
  N45      1.0000 0.40687  0.14113  0.82893  Biso   1.000  N
  C416     1.0000 0.43108  0.16433  0.74963  Biso   1.000  C
  H471     1.0000 0.43237  0.18633  0.73443  Biso   1.000  H
  C417     1.0000 0.45337  0.15533  0.69233  Biso   1.000  C
  H472     1.0000 0.46987  0.17123  0.63813  Biso   1.000  H
  C418     1.0000 0.48467  0.26513  0.01783  Biso   1.000  C
  N46      1.0000 0.47874  0.39880  0.61243  Biso   1.000  N
  C419     1.0000 0.49922  0.39798  0.70213  Biso   1.000  C
  H473     1.0000 0.52047  0.41873  0.72243  Biso   1.000  H
  C420     1.0000 0.48847  0.36673  0.76203  Biso   1.000  C
  H474     1.0000 0.50247  0.36623  0.82333  Biso   1.000  H
  C421     1.0000 0.45733  0.33639  0.73223  Biso   1.000  C
  C422     1.0000 0.43686  0.33722  0.64263  Biso   1.000  C
  H475     1.0000 0.41557  0.31643  0.62223  Biso   1.000  H
  C423     1.0000 0.44757  0.36843  0.58263  Biso   1.000  C
  H476     1.0000 0.43357  0.36903  0.52133  Biso   1.000  H
  C424     1.0000 0.46597  0.25393  0.13383  Biso   1.000  C
  H477     1.0000 0.46017  0.27163  0.16033  Biso   1.000  H
  H478     1.0000 0.44417  0.23103  0.12573  Biso   1.000  H
  H479     1.0000 0.48147  0.25173  0.18963  Biso   1.000  H
  C425     1.0000 0.44619  0.30165  0.79393  Biso   1.000  C
  C426     1.0000 0.41407  0.27163  0.76923  Biso   1.000  C
  H480     1.0000 0.39857  0.27283  0.71463  Biso   1.000  H
  C427     1.0000 0.40463  0.23999  0.82443  Biso   1.000  C
  C428     1.0000 0.42736  0.23832  0.90433  Biso   1.000  C
  C429     1.0000 0.45947  0.26833  0.92903  Biso   1.000  C
  C430     1.0000 0.46882  0.29998  0.87383  Biso   1.000  C
  H481     1.0000 0.49077  0.32043  0.89063  Biso   1.000  H
  C431     1.0000 0.49327  0.23793  0.97963  Biso   1.000  C
  H482     1.0000 0.50527  0.24473  0.90543  Biso   1.000  H
  H483     1.0000 0.50877  0.23583  0.03603  Biso   1.000  H
  H484     1.0000 0.47137  0.21513  0.97213  Biso   1.000  H
  C432     1.0000 0.51997  0.30193  0.03323  Biso   1.000  C
  H485     1.0000 0.51417  0.31983  0.05843  Biso   1.000  H
  H486     1.0000 0.53497  0.29953  0.09073  Biso   1.000  H
  H487     1.0000 0.53267  0.30923  0.96013  Biso   1.000  H
  C433     1.0000 0.37297  0.21093  0.78283  Biso   1.000  C
  H488     1.0000 0.36017  0.21683  0.73023  Biso   1.000  H
  C434     1.0000 0.32777  0.15083  0.75233  Biso   1.000  C
  H489     1.0000 0.33537  0.13733  0.70203  Biso   1.000  H
  C435     1.0000 0.30567  0.16063  0.67943  Biso   1.000  C
  H490     1.0000 0.32037  0.17623  0.61663  Biso   1.000  H
  H491     1.0000 0.29757  0.17413  0.72643  Biso   1.000  H
  C436     1.0000 0.27277  0.12793  0.62703  Biso   1.000  C
  H492     1.0000 0.25777  0.13573  0.58803  Biso   1.000  H
  H493     1.0000 0.28067  0.11683  0.56903  Biso   1.000  H
  C437     1.0000 0.25207  0.10193  0.71423  Biso   1.000  C
  H494     1.0000 0.23417  0.08013  0.67533  Biso   1.000  H
  H495     1.0000 0.23927  0.11113  0.75923  Biso   1.000  H
  C438     1.0000 0.27227  0.09233  0.79503  Biso   1.000  C
  H496     1.0000 0.28037  0.07783  0.75433  Biso   1.000  H
  H497     1.0000 0.25637  0.07783  0.85793  Biso   1.000  H
  C439     1.0000 0.30447  0.12533  0.84583  Biso   1.000  C
  H498     1.0000 0.29567  0.13793  0.89553  Biso   1.000  H
  C440     1.0000 0.31187  0.10203  0.02533  Biso   1.000  C
  H499     1.0000 0.28767  0.08193  0.01403  Biso   1.000  H
  H500     1.0000 0.30977  0.12053  0.06723  Biso   1.000  H
  C441     1.0000 0.33198  0.08953  0.10033  Biso   1.000  C
  C442     1.0000 0.36775  0.11101  0.12403  Biso   1.000  C
  C443     1.0000 0.38517  0.09843  0.19183  Biso   1.000  C
  C444     1.0000 0.36686  0.06433  0.23593  Biso   1.000  C
  H501     1.0000 0.37877  0.05573  0.28223  Biso   1.000  H
  C445     1.0000 0.33111  0.04287  0.21223  Biso   1.000  C
  C446     1.0000 0.31372  0.05548  0.14443  Biso   1.000  C
  H502     1.0000 0.28927  0.04083  0.12823  Biso   1.000  H
  C447     1.0000 0.42447  0.12203  0.22423  Biso   1.000  C
  C448     1.0000 0.48897  0.03513  0.63493  Biso   1.000  C
  H503     1.0000 0.46827  0.01903  0.67513  Biso   1.000  H
  C449     1.0000 0.42967  0.15373  0.28283  Biso   1.000  C
  H504     1.0000 0.45467  0.16853  0.30303  Biso   1.000  H
  H505     1.0000 0.42257  0.16693  0.23223  Biso   1.000  H
  H506     1.0000 0.41527  0.14693  0.35253  Biso   1.000  H
  C450     1.0000 0.44757  0.13333  0.11343  Biso   1.000  C
  H507     1.0000 0.44447  0.11233  0.07323  Biso   1.000  H
  H508     1.0000 0.44037  0.14663  0.06343  Biso   1.000  H
  H509     1.0000 0.47257  0.14833  0.13423  Biso   1.000  H
  C451     1.0000 0.43887  0.10223  0.29833  Biso   1.000  C
  H510     1.0000 0.43527  0.08113  0.25763  Biso   1.000  H
  H511     1.0000 0.46417  0.11783  0.31233  Biso   1.000  H
  H512     1.0000 0.42627  0.09543  0.37153  Biso   1.000  H
  C452     1.0000 0.31103  0.00439  0.25123  Biso   1.000  C
  C453     1.0000 0.27477  0.98463  0.23403  Biso   1.000  C
  H513     1.0000 0.26267  0.99513  0.19933  Biso   1.000  H
  C454     1.0000 0.25627  0.94943  0.26753  Biso   1.000  C
  H514     1.0000 0.23147  0.93583  0.25573  Biso   1.000  H
  N47      1.0000 0.27402  0.93398  0.31833  Biso   1.000  N
  C455     1.0000 0.31027  0.95373  0.33553  Biso   1.000  C
  H515     1.0000 0.32247  0.94323  0.37013  Biso   1.000  H
  C456     1.0000 0.32877  0.98893  0.30193  Biso   1.000  C
  H516     1.0000 0.35367  0.00253  0.31373  Biso   1.000  H
  N48      1.0000 0.35917  0.17853  0.80473  Biso   1.000  N
  Zn13     1.0000 0.61648  0.83862  0.84545  Biso   1.000  Zn
  Zn14     1.0000 0.50748  0.55435  0.26256  Biso   1.000  Zn
  N49      1.0000 0.66603  0.88677  0.86977  Biso   1.000  N
  N50      1.0000 0.64173  0.81817  0.93387  Biso   1.000  N
  N51      1.0000 0.55143  0.54457  0.25197  Biso   1.000  N
  O25      1.0000 0.61383  0.85147  0.68707  Biso   1.000  O
  O26      1.0000 0.57773  0.78987  0.81967  Biso   1.000  O
  O27      1.0000 0.45833  0.54237  0.29037  Biso   1.000  O
  O28      1.0000 0.52183  0.57457  0.41687  Biso   1.000  O
  N52      1.0000 0.72083  0.06207  0.45097  Biso   1.000  N
  C457     1.0000 0.68433  0.04157  0.44357  Biso   1.000  C
  H517     1.0000 0.67083  0.05167  0.41617  Biso   1.000  H
  C458     1.0000 0.66743  0.00637  0.47647  Biso   1.000  C
  H518     1.0000 0.64243  0.99227  0.47137  Biso   1.000  H
  C459     1.0000 0.68713  0.99157  0.51667  Biso   1.000  C
  C460     1.0000 0.72363  0.01207  0.52397  Biso   1.000  C
  H519     1.0000 0.73703  0.00197  0.55147  Biso   1.000  H
  C461     1.0000 0.74053  0.04737  0.49117  Biso   1.000  C
  H520     1.0000 0.76553  0.06137  0.49617  Biso   1.000  H
  C462     1.0000 0.57313  0.87257  0.54107  Biso   1.000  C
  C463     1.0000 0.66693  0.95288  0.55897  Biso   1.000  C
  C464     1.0000 0.68358  0.94107  0.63327  Biso   1.000  C
  H521     1.0000 0.70743  0.95637  0.65497  Biso   1.000  H
  C465     1.0000 0.66536  0.90687  0.67607  Biso   1.000  C
  C466     1.0000 0.63043  0.88441  0.64437  Biso   1.000  C
  C467     1.0000 0.61375  0.89622  0.56997  Biso   1.000  C
  C468     1.0000 0.63193  0.93047  0.52727  Biso   1.000  C
  H522     1.0000 0.62053  0.93857  0.47637  Biso   1.000  H
  C469     1.0000 0.54983  0.86207  0.64847  Biso   1.000  C
  H523     1.0000 0.55703  0.84957  0.70177  Biso   1.000  H
  H524     1.0000 0.55233  0.88337  0.68537  Biso   1.000  H
  H525     1.0000 0.52503  0.84657  0.62677  Biso   1.000  H
  C470     1.0000 0.56803  0.83957  0.47557  Biso   1.000  C
  H526     1.0000 0.58313  0.84697  0.40757  Biso   1.000  H
  H527     1.0000 0.57433  0.82557  0.52547  Biso   1.000  H
  H528     1.0000 0.54323  0.82517  0.45217  Biso   1.000  H
  C471     1.0000 0.56083  0.89187  0.46007  Biso   1.000  C
  H529     1.0000 0.57523  0.89887  0.39057  Biso   1.000  H
  H530     1.0000 0.53593  0.87617  0.43977  Biso   1.000  H
  H531     1.0000 0.56323  0.91297  0.49837  Biso   1.000  H
  C472     1.0000 0.68453  0.89477  0.75447  Biso   1.000  C
  H532     1.0000 0.70953  0.91357  0.76247  Biso   1.000  H
  H533     1.0000 0.68383  0.87337  0.72317  Biso   1.000  H
  C473     1.0000 0.68343  0.88217  0.96817  Biso   1.000  C
  H534     1.0000 0.66903  0.88147  0.03577  Biso   1.000  H
  C474     1.0000 0.72033  0.91087  0.99297  Biso   1.000  C
  H535     1.0000 0.72113  0.93387  0.99617  Biso   1.000  H
  H536     1.0000 0.73623  0.91187  0.93087  Biso   1.000  H
  C475     1.0000 0.73293  0.90387  0.10747  Biso   1.000  C
  H537     1.0000 0.75733  0.92287  0.12327  Biso   1.000  H
  H538     1.0000 0.71753  0.90347  0.17017  Biso   1.000  H
  C476     1.0000 0.73153  0.86917  0.10117  Biso   1.000  C
  H539     1.0000 0.74873  0.87047  0.04327  Biso   1.000  H
  H540     1.0000 0.73843  0.86397  0.17617  Biso   1.000  H
  C477     1.0000 0.69583  0.84027  0.07047  Biso   1.000  C
  H541     1.0000 0.69673  0.81817  0.06327  Biso   1.000  H
  H542     1.0000 0.67963  0.83697  0.13447  Biso   1.000  H
  C478     1.0000 0.68053  0.84517  0.96417  Biso   1.000  C
  H543     1.0000 0.69553  0.84547  0.89917  Biso   1.000  H
  C479     1.0000 0.59495  0.75776  0.94777  Biso   1.000  C
  C480     1.0000 0.58623  0.72607  0.00187  Biso   1.000  C
  H544     1.0000 0.60273  0.72477  0.05167  Biso   1.000  H
  C481     1.0000 0.55343  0.69640  0.98317  Biso   1.000  C
  C482     1.0000 0.52927  0.69832  0.91027  Biso   1.000  C
  H545     1.0000 0.50683  0.67797  0.89747  Biso   1.000  H
  C483     1.0000 0.53803  0.72997  0.85617  Biso   1.000  C
  C484     1.0000 0.57083  0.75968  0.87487  Biso   1.000  C
  C485     1.0000 0.50983  0.73067  0.77507  Biso   1.000  C
  C486     1.0000 0.52583  0.74197  0.65307  Biso   1.000  C
  H546     1.0000 0.54753  0.76497  0.65687  Biso   1.000  H
  H547     1.0000 0.53133  0.72427  0.62247  Biso   1.000  H
  H548     1.0000 0.50883  0.74357  0.60287  Biso   1.000  H
  C487     1.0000 0.49913  0.75637  0.81977  Biso   1.000  C
  H549     1.0000 0.52003  0.77997  0.82597  Biso   1.000  H
  H550     1.0000 0.48213  0.75727  0.76697  Biso   1.000  H
  H551     1.0000 0.48823  0.74867  0.89537  Biso   1.000  H
  C488     1.0000 0.47673  0.69547  0.76767  Biso   1.000  C
  H552     1.0000 0.48233  0.67777  0.73917  Biso   1.000  H
  H553     1.0000 0.46603  0.68847  0.84407  Biso   1.000  H
  H554     1.0000 0.46003  0.69707  0.71567  Biso   1.000  H
  C489     1.0000 0.54343  0.66157  0.04787  Biso   1.000  C
  C490     1.0000 0.56663  0.66057  0.12727  Biso   1.000  C
  H555     1.0000 0.58853  0.68127  0.14237  Biso   1.000  H
  C491     1.0000 0.55763  0.62927  0.18447  Biso   1.000  C
  H556     1.0000 0.57343  0.62867  0.23867  Biso   1.000  H
  N53      1.0000 0.52553  0.59907  0.16227  Biso   1.000  N
  C492     1.0000 0.50233  0.60008  0.08297  Biso   1.000  C
  H557     1.0000 0.48033  0.57937  0.06777  Biso   1.000  H
  C493     1.0000 0.51133  0.63137  0.02567  Biso   1.000  C
  H558     1.0000 0.49543  0.63197  0.97147  Biso   1.000  H
  C494     1.0000 0.40153  0.55287  0.35117  Biso   1.000  C
  N54      1.0000 0.26786  0.41327  0.94577  Biso   1.000  N
  C495     1.0000 0.26868  0.43457  0.03547  Biso   1.000  C
  H559     1.0000 0.24793  0.43507  0.05577  Biso   1.000  H
  C496     1.0000 0.29993  0.45507  0.09537  Biso   1.000  C
  H560     1.0000 0.30043  0.46957  0.15667  Biso   1.000  H
  C497     1.0000 0.33027  0.45427  0.06557  Biso   1.000  C
  C498     1.0000 0.32944  0.43297  0.97597  Biso   1.000  C
  H561     1.0000 0.35023  0.43247  0.95557  Biso   1.000  H
  C499     1.0000 0.29823  0.41247  0.91597  Biso   1.000  C
  H562     1.0000 0.29763  0.39787  0.85467  Biso   1.000  H
  C500     1.0000 0.41273  0.54537  0.46717  Biso   1.000  C
  H563     1.0000 0.39503  0.52187  0.49367  Biso   1.000  H
  H564     1.0000 0.43563  0.54647  0.45907  Biso   1.000  H
  H565     1.0000 0.41493  0.56307  0.52297  Biso   1.000  H
  C501     1.0000 0.36501  0.47787  0.12727  Biso   1.000  C
  C502     1.0000 0.39503  0.47577  0.10257  Biso   1.000  C
  H566     1.0000 0.39383  0.45907  0.04797  Biso   1.000  H
  C503     1.0000 0.42667  0.49797  0.15777  Biso   1.000  C
  C504     1.0000 0.42834  0.52237  0.23767  Biso   1.000  C
  C505     1.0000 0.39833  0.52447  0.26237  Biso   1.000  C
  C506     1.0000 0.36668  0.50217  0.20717  Biso   1.000  C
  H567     1.0000 0.34623  0.50367  0.22397  Biso   1.000  H
  C507     1.0000 0.42873  0.58867  0.31297  Biso   1.000  C
  H568     1.0000 0.42193  0.59387  0.23877  Biso   1.000  H
  H569     1.0000 0.43083  0.60627  0.36937  Biso   1.000  H
  H570     1.0000 0.45153  0.58957  0.30547  Biso   1.000  H
  C508     1.0000 0.36473  0.55137  0.36657  Biso   1.000  C
  H571     1.0000 0.34683  0.52767  0.39177  Biso   1.000  H
  H572     1.0000 0.36713  0.56877  0.42407  Biso   1.000  H
  H573     1.0000 0.35743  0.55677  0.29347  Biso   1.000  H
  C509     1.0000 0.45573  0.49537  0.11617  Biso   1.000  C
  H574     1.0000 0.44983  0.47667  0.06357  Biso   1.000  H
  C510     1.0000 0.51583  0.51027  0.08567  Biso   1.000  C
  H575     1.0000 0.52933  0.53137  0.03537  Biso   1.000  H
  C511     1.0000 0.50603  0.47837  0.01277  Biso   1.000  C
  H576     1.0000 0.49043  0.47747  0.94997  Biso   1.000  H
  H577     1.0000 0.49253  0.45677  0.05977  Biso   1.000  H
  C512     1.0000 0.53873  0.47817  0.96037  Biso   1.000  C
  H578     1.0000 0.53093  0.45537  0.92137  Biso   1.000  H
  H579     1.0000 0.54983  0.49717  0.90237  Biso   1.000  H
  C513     1.0000 0.56473  0.48347  0.04757  Biso   1.000  C
  H580     1.0000 0.58653  0.48737  0.00867  Biso   1.000  H
  H581     1.0000 0.55553  0.46147  0.09257  Biso   1.000  H
  C514     1.0000 0.57433  0.51327  0.12837  Biso   1.000  C
  H582     1.0000 0.58883  0.53587  0.08767  Biso   1.000  H
  H583     1.0000 0.58883  0.51187  0.19127  Biso   1.000  H
  C515     1.0000 0.54133  0.51247  0.17917  Biso   1.000  C
  H584     1.0000 0.52873  0.49107  0.22887  Biso   1.000  H
  C516     1.0000 0.56463  0.54317  0.35867  Biso   1.000  C
  H585     1.0000 0.58473  0.53907  0.34737  Biso   1.000  H
  H586     1.0000 0.54613  0.52257  0.40057  Biso   1.000  H
  C517     1.0000 0.57713  0.57578  0.43367  Biso   1.000  C
  C518     1.0000 0.55565  0.59007  0.45737  Biso   1.000  C
  C519     1.0000 0.56823  0.62007  0.52517  Biso   1.000  C
  C520     1.0000 0.60233  0.63586  0.56927  Biso   1.000  C
  H587     1.0000 0.61093  0.65637  0.61557  Biso   1.000  H
  C521     1.0000 0.62379  0.62157  0.54557  Biso   1.000  C
  C522     1.0000 0.61118  0.59157  0.47777  Biso   1.000  C
  H588     1.0000 0.62583  0.58177  0.46157  Biso   1.000  H
  C523     1.0000 0.54463  0.63577  0.55757  Biso   1.000  C
  C524     1.0000 0.63153  0.78717  0.96827  Biso   1.000  C
  H589     1.0000 0.64763  0.78257  0.00847  Biso   1.000  H
  C525     1.0000 0.51293  0.60927  0.61617  Biso   1.000  C
  H590     1.0000 0.49813  0.61947  0.63637  Biso   1.000  H
  H591     1.0000 0.49973  0.58897  0.56557  Biso   1.000  H
  H592     1.0000 0.51973  0.60167  0.68587  Biso   1.000  H
  C526     1.0000 0.53333  0.64757  0.44677  Biso   1.000  C
  H593     1.0000 0.55433  0.66547  0.40657  Biso   1.000  H
  H594     1.0000 0.52003  0.62707  0.39677  Biso   1.000  H
  H595     1.0000 0.51833  0.65757  0.46757  Biso   1.000  H
  C527     1.0000 0.56443  0.66997  0.63167  Biso   1.000  C
  H596     1.0000 0.58553  0.68747  0.59097  Biso   1.000  H
  H597     1.0000 0.54883  0.67967  0.64567  Biso   1.000  H
  H598     1.0000 0.57123  0.66417  0.70487  Biso   1.000  H
  C528     1.0000 0.66227  0.63997  0.58457  Biso   1.000  C
  C529     1.0000 0.68203  0.62347  0.56737  Biso   1.000  C
  H599     1.0000 0.67153  0.60087  0.53267  Biso   1.000  H
  C530     1.0000 0.71723  0.64017  0.60087  Biso   1.000  C
  H600     1.0000 0.73083  0.62897  0.58907  Biso   1.000  H
  N55      1.0000 0.73268  0.67337  0.65167  Biso   1.000  N
  C531     1.0000 0.71293  0.68987  0.66887  Biso   1.000  C
  H601     1.0000 0.72343  0.71257  0.70347  Biso   1.000  H
  C532     1.0000 0.67773  0.67317  0.63527  Biso   1.000  C
  H602     1.0000 0.66413  0.68447  0.64707  Biso   1.000  H
  N56      1.0000 0.48813  0.51397  0.13807  Biso   1.000  N
  Zn15     1.0000 0.16138  0.77787  0.84545  Biso   1.000  Zn
  Zn16     1.0000 0.44565  0.95314  0.26256  Biso   1.000  Zn
  N57      1.0000 0.11323  0.77927  0.86977  Biso   1.000  N
  N58      1.0000 0.18183  0.82357  0.93387  Biso   1.000  N
  N59      1.0000 0.45543  0.00687  0.25197  Biso   1.000  N
  O29      1.0000 0.14853  0.76237  0.68707  Biso   1.000  O
  O30      1.0000 0.21013  0.78787  0.81967  Biso   1.000  O
  O31      1.0000 0.45763  0.91597  0.29037  Biso   1.000  O
  O32      1.0000 0.42543  0.94727  0.41687  Biso   1.000  O
  N60      1.0000 0.93793  0.65877  0.45097  Biso   1.000  N
  C533     1.0000 0.95843  0.64277  0.44357  Biso   1.000  C
  H603     1.0000 0.94833  0.61917  0.41617  Biso   1.000  H
  C534     1.0000 0.99363  0.66107  0.47647  Biso   1.000  C
  H604     1.0000 0.00773  0.65017  0.47137  Biso   1.000  H
  C535     1.0000 0.00843  0.69557  0.51667  Biso   1.000  C
  C536     1.0000 0.98793  0.71157  0.52397  Biso   1.000  C
  H605     1.0000 0.99803  0.73507  0.55147  Biso   1.000  H
  C537     1.0000 0.95263  0.69317  0.49117  Biso   1.000  C
  H606     1.0000 0.93863  0.70417  0.49617  Biso   1.000  H
  C538     1.0000 0.12743  0.70057  0.54107  Biso   1.000  C
  C539     1.0000 0.04712  0.71406  0.55897  Biso   1.000  C
  C540     1.0000 0.05893  0.74252  0.63327  Biso   1.000  C
  H607     1.0000 0.04363  0.75107  0.65497  Biso   1.000  H
  C541     1.0000 0.09313  0.75850  0.67607  Biso   1.000  C
  C542     1.0000 0.11559  0.74603  0.64437  Biso   1.000  C
  C543     1.0000 0.10378  0.71754  0.56997  Biso   1.000  C
  C544     1.0000 0.06953  0.70147  0.52727  Biso   1.000  C
  H608     1.0000 0.06143  0.68197  0.47637  Biso   1.000  H
  C545     1.0000 0.13793  0.68777  0.64847  Biso   1.000  C
  H609     1.0000 0.15043  0.70747  0.70177  Biso   1.000  H
  H610     1.0000 0.11663  0.66897  0.68537  Biso   1.000  H
  H611     1.0000 0.15343  0.67847  0.62677  Biso   1.000  H
  C546     1.0000 0.16043  0.72847  0.47557  Biso   1.000  C
  H612     1.0000 0.15303  0.73617  0.40757  Biso   1.000  H
  H613     1.0000 0.17443  0.74877  0.52547  Biso   1.000  H
  H614     1.0000 0.17483  0.71807  0.45217  Biso   1.000  H
  C547     1.0000 0.10813  0.66897  0.46007  Biso   1.000  C
  H615     1.0000 0.10113  0.67637  0.39057  Biso   1.000  H
  H616     1.0000 0.12383  0.65977  0.43977  Biso   1.000  H
  H617     1.0000 0.08703  0.65027  0.49837  Biso   1.000  H
  C548     1.0000 0.10523  0.78977  0.75447  Biso   1.000  C
  H618     1.0000 0.08643  0.79597  0.76247  Biso   1.000  H
  H619     1.0000 0.12663  0.81047  0.72317  Biso   1.000  H
  C549     1.0000 0.11783  0.80127  0.96817  Biso   1.000  C
  H620     1.0000 0.11853  0.78757  0.03577  Biso   1.000  H
  C550     1.0000 0.08913  0.80947  0.99297  Biso   1.000  C
  H621     1.0000 0.06613  0.78727  0.99617  Biso   1.000  H
  H622     1.0000 0.08813  0.82437  0.93087  Biso   1.000  H
  C551     1.0000 0.09613  0.82907  0.10747  Biso   1.000  C
  H623     1.0000 0.07713  0.83447  0.12327  Biso   1.000  H
  H624     1.0000 0.09653  0.81407  0.17017  Biso   1.000  H
  C552     1.0000 0.13083  0.86237  0.10117  Biso   1.000  C
  H625     1.0000 0.12953  0.87827  0.04327  Biso   1.000  H
  H626     1.0000 0.13603  0.87447  0.17617  Biso   1.000  H
  C553     1.0000 0.15973  0.85557  0.07047  Biso   1.000  C
  H627     1.0000 0.18183  0.87857  0.06327  Biso   1.000  H
  H628     1.0000 0.16303  0.84267  0.13447  Biso   1.000  H
  C554     1.0000 0.15483  0.83537  0.96417  Biso   1.000  C
  H629     1.0000 0.15453  0.85007  0.89917  Biso   1.000  H
  C555     1.0000 0.24224  0.83720  0.94777  Biso   1.000  C
  C556     1.0000 0.27393  0.86017  0.00187  Biso   1.000  C
  H630     1.0000 0.27523  0.87797  0.05167  Biso   1.000  H
  C557     1.0000 0.30360  0.85704  0.98317  Biso   1.000  C
  C558     1.0000 0.30168  0.83096  0.91027  Biso   1.000  C
  H631     1.0000 0.32203  0.82887  0.89747  Biso   1.000  H
  C559     1.0000 0.27003  0.80807  0.85617  Biso   1.000  C
  C560     1.0000 0.24032  0.81116  0.87487  Biso   1.000  C
  C561     1.0000 0.26933  0.77917  0.77507  Biso   1.000  C
  C562     1.0000 0.25803  0.78387  0.65307  Biso   1.000  C
  H632     1.0000 0.23503  0.78257  0.65687  Biso   1.000  H
  H633     1.0000 0.27573  0.80707  0.62247  Biso   1.000  H
  H634     1.0000 0.25643  0.76527  0.60287  Biso   1.000  H
  C563     1.0000 0.24363  0.74277  0.81977  Biso   1.000  C
  H635     1.0000 0.22003  0.74007  0.82597  Biso   1.000  H
  H636     1.0000 0.24273  0.72487  0.76697  Biso   1.000  H
  H637     1.0000 0.25133  0.73957  0.89537  Biso   1.000  H
  C564     1.0000 0.30453  0.78127  0.76767  Biso   1.000  C
  H638     1.0000 0.32223  0.80457  0.73917  Biso   1.000  H
  H639     1.0000 0.31153  0.77757  0.84407  Biso   1.000  H
  H640     1.0000 0.30293  0.76297  0.71567  Biso   1.000  H
  C565     1.0000 0.33843  0.88187  0.04787  Biso   1.000  C
  C566     1.0000 0.33943  0.90607  0.12727  Biso   1.000  C
  H641     1.0000 0.31873  0.90727  0.14237  Biso   1.000  H
  C567     1.0000 0.37073  0.92837  0.18447  Biso   1.000  C
  H642     1.0000 0.37133  0.94477  0.23867  Biso   1.000  H
  N61      1.0000 0.40093  0.92647  0.16227  Biso   1.000  N
  C568     1.0000 0.39992  0.90226  0.08297  Biso   1.000  C
  H643     1.0000 0.42063  0.90097  0.06777  Biso   1.000  H
  C569     1.0000 0.36863  0.87997  0.02567  Biso   1.000  C
  H644     1.0000 0.36803  0.86347  0.97147  Biso   1.000  H
  C570     1.0000 0.44713  0.84867  0.35117  Biso   1.000  C
  N62      1.0000 0.58673  0.85460  0.94577  Biso   1.000  N
  C571     1.0000 0.56543  0.83412  0.03547  Biso   1.000  C
  H645     1.0000 0.56493  0.81287  0.05577  Biso   1.000  H
  C572     1.0000 0.54493  0.84487  0.09537  Biso   1.000  C
  H646     1.0000 0.53043  0.83087  0.15667  Biso   1.000  H
  C573     1.0000 0.54573  0.87601  0.06557  Biso   1.000  C
  C574     1.0000 0.56703  0.89648  0.97597  Biso   1.000  C
  H647     1.0000 0.56753  0.91777  0.95557  Biso   1.000  H
  C575     1.0000 0.58753  0.88577  0.91597  Biso   1.000  C
  H648     1.0000 0.60213  0.89977  0.85467  Biso   1.000  H
  C576     1.0000 0.45463  0.86737  0.46717  Biso   1.000  C
  H649     1.0000 0.47813  0.87317  0.49367  Biso   1.000  H
  H650     1.0000 0.45353  0.88917  0.45907  Biso   1.000  H
  H651     1.0000 0.43693  0.85187  0.52297  Biso   1.000  H
  C577     1.0000 0.52213  0.88715  0.12727  Biso   1.000  C
  C578     1.0000 0.52423  0.91927  0.10257  Biso   1.000  C
  H652     1.0000 0.54093  0.93477  0.04797  Biso   1.000  H
  C579     1.0000 0.50203  0.92871  0.15777  Biso   1.000  C
  C580     1.0000 0.47763  0.90598  0.23767  Biso   1.000  C
  C581     1.0000 0.47553  0.87387  0.26237  Biso   1.000  C
  C582     1.0000 0.49783  0.86452  0.20717  Biso   1.000  C
  H653     1.0000 0.49633  0.84257  0.22397  Biso   1.000  H
  C583     1.0000 0.41133  0.84007  0.31297  Biso   1.000  C
  H654     1.0000 0.40613  0.82807  0.23877  Biso   1.000  H
  H655     1.0000 0.39373  0.82457  0.36937  Biso   1.000  H
  H656     1.0000 0.41043  0.86197  0.30547  Biso   1.000  H
  C584     1.0000 0.44863  0.81337  0.36657  Biso   1.000  C
  H657     1.0000 0.47233  0.81917  0.39177  Biso   1.000  H
  H658     1.0000 0.43123  0.79837  0.42407  Biso   1.000  H
  H659     1.0000 0.44323  0.80067  0.29347  Biso   1.000  H
  C585     1.0000 0.50463  0.96037  0.11617  Biso   1.000  C
  H660     1.0000 0.52333  0.97317  0.06357  Biso   1.000  H
  C586     1.0000 0.48973  0.00557  0.08567  Biso   1.000  C
  H661     1.0000 0.46863  0.99797  0.03537  Biso   1.000  H
  C587     1.0000 0.52163  0.02767  0.01277  Biso   1.000  C
  H662     1.0000 0.52253  0.01297  0.94997  Biso   1.000  H
  H663     1.0000 0.54323  0.03577  0.05977  Biso   1.000  H
  C588     1.0000 0.52183  0.06057  0.96037  Biso   1.000  C
  H664     1.0000 0.54463  0.07557  0.92137  Biso   1.000  H
  H665     1.0000 0.50283  0.05267  0.90237  Biso   1.000  H
  C589     1.0000 0.51653  0.08127  0.04757  Biso   1.000  C
  H666     1.0000 0.51263  0.09917  0.00867  Biso   1.000  H
  H667     1.0000 0.53853  0.09407  0.09257  Biso   1.000  H
  C590     1.0000 0.48673  0.06107  0.12837  Biso   1.000  C
  H668     1.0000 0.46413  0.05297  0.08767  Biso   1.000  H
  H669     1.0000 0.48813  0.07697  0.19127  Biso   1.000  H
  C591     1.0000 0.48753  0.02887  0.17917  Biso   1.000  C
  H670     1.0000 0.50893  0.03767  0.22887  Biso   1.000  H
  C592     1.0000 0.45683  0.02147  0.35867  Biso   1.000  C
  H671     1.0000 0.46093  0.04567  0.34737  Biso   1.000  H
  H672     1.0000 0.47743  0.02357  0.40057  Biso   1.000  H
  C593     1.0000 0.42422  0.00136  0.43367  Biso   1.000  C
  C594     1.0000 0.40993  0.96559  0.45737  Biso   1.000  C
  C595     1.0000 0.37993  0.94817  0.52517  Biso   1.000  C
  C596     1.0000 0.36414  0.96648  0.56927  Biso   1.000  C
  H673     1.0000 0.34363  0.95457  0.61557  Biso   1.000  H
  C597     1.0000 0.37843  0.00223  0.54557  Biso   1.000  C
  C598     1.0000 0.40843  0.01962  0.47777  Biso   1.000  C
  H674     1.0000 0.41823  0.04407  0.46157  Biso   1.000  H
  C599     1.0000 0.36423  0.90887  0.55757  Biso   1.000  C
  C600     1.0000 0.21283  0.84437  0.96827  Biso   1.000  C
  H675     1.0000 0.21743  0.86507  0.00847  Biso   1.000  H
  C601     1.0000 0.39073  0.90367  0.61617  Biso   1.000  C
  H676     1.0000 0.38053  0.87867  0.63637  Biso   1.000  H
  H677     1.0000 0.41103  0.91077  0.56557  Biso   1.000  H
  H678     1.0000 0.39833  0.91807  0.68587  Biso   1.000  H
  C602     1.0000 0.35243  0.88577  0.44677  Biso   1.000  C
  H679     1.0000 0.33453  0.88887  0.40657  Biso   1.000  H
  H680     1.0000 0.37293  0.89297  0.39677  Biso   1.000  H
  H681     1.0000 0.34243  0.86077  0.46757  Biso   1.000  H
  C603     1.0000 0.33003  0.89447  0.63167  Biso   1.000  C
  H682     1.0000 0.31253  0.89807  0.59097  Biso   1.000  H
  H683     1.0000 0.32033  0.86917  0.64567  Biso   1.000  H
  H684     1.0000 0.33583  0.90707  0.70487  Biso   1.000  H
  C604     1.0000 0.36003  0.02231  0.58457  Biso   1.000  C
  C605     1.0000 0.37653  0.05857  0.56737  Biso   1.000  C
  H685     1.0000 0.39913  0.07067  0.53267  Biso   1.000  H
  C606     1.0000 0.35983  0.07707  0.60087  Biso   1.000  C
  H686     1.0000 0.37103  0.10187  0.58907  Biso   1.000  H
  N63      1.0000 0.32663  0.05932  0.65167  Biso   1.000  N
  C607     1.0000 0.31013  0.02307  0.66887  Biso   1.000  C
  H687     1.0000 0.28743  0.01087  0.70347  Biso   1.000  H
  C608     1.0000 0.32683  0.00457  0.63527  Biso   1.000  C
  H688     1.0000 0.31553  0.97967  0.64707  Biso   1.000  H
  N64      1.0000 0.48603  0.97417  0.13807  Biso   1.000  N
  Zn17     1.0000 0.22213  0.38352  0.84545  Biso   1.000  Zn
  Zn18     1.0000 0.04686  0.49252  0.26256  Biso   1.000  Zn
  N65      1.0000 0.22073  0.33397  0.86977  Biso   1.000  N
  N66      1.0000 0.17643  0.35827  0.93387  Biso   1.000  N
  N67      1.0000 0.99313  0.44857  0.25197  Biso   1.000  N
  O33      1.0000 0.23763  0.38617  0.68707  Biso   1.000  O
  O34      1.0000 0.21213  0.42227  0.81967  Biso   1.000  O
  O35      1.0000 0.08403  0.54167  0.29037  Biso   1.000  O
  O36      1.0000 0.05273  0.47817  0.41687  Biso   1.000  O
  N68      1.0000 0.34123  0.27917  0.45097  Biso   1.000  N
  C609     1.0000 0.35723  0.31567  0.44357  Biso   1.000  C
  H689     1.0000 0.38083  0.32917  0.41617  Biso   1.000  H
  C610     1.0000 0.33893  0.33257  0.47647  Biso   1.000  C
  H690     1.0000 0.34983  0.35757  0.47137  Biso   1.000  H
  C611     1.0000 0.30443  0.31287  0.51667  Biso   1.000  C
  C612     1.0000 0.28843  0.27637  0.52397  Biso   1.000  C
  H691     1.0000 0.26493  0.26297  0.55147  Biso   1.000  H
  C613     1.0000 0.30683  0.25947  0.49117  Biso   1.000  C
  H692     1.0000 0.29583  0.23447  0.49617  Biso   1.000  H
  C614     1.0000 0.29943  0.42687  0.54107  Biso   1.000  C
  C615     1.0000 0.28594  0.33307  0.55897  Biso   1.000  C
  C616     1.0000 0.25748  0.31642  0.63327  Biso   1.000  C
  H693     1.0000 0.24893  0.29257  0.65497  Biso   1.000  H
  C617     1.0000 0.24150  0.33464  0.67607  Biso   1.000  C
  C618     1.0000 0.25397  0.36957  0.64437  Biso   1.000  C
  C619     1.0000 0.28246  0.38625  0.56997  Biso   1.000  C
  C620     1.0000 0.29853  0.36807  0.52727  Biso   1.000  C
  H694     1.0000 0.31803  0.37947  0.47637  Biso   1.000  H
  C621     1.0000 0.31223  0.45017  0.64847  Biso   1.000  C
  H695     1.0000 0.29253  0.44297  0.70177  Biso   1.000  H
  H696     1.0000 0.33103  0.44767  0.68537  Biso   1.000  H
  H697     1.0000 0.32153  0.47497  0.62677  Biso   1.000  H
  C622     1.0000 0.27153  0.43197  0.47557  Biso   1.000  C
  H698     1.0000 0.26383  0.41687  0.40757  Biso   1.000  H
  H699     1.0000 0.25123  0.42567  0.52547  Biso   1.000  H
  H700     1.0000 0.28193  0.45677  0.45217  Biso   1.000  H
  C623     1.0000 0.33103  0.43917  0.46007  Biso   1.000  C
  H701     1.0000 0.32363  0.42477  0.39057  Biso   1.000  H
  H702     1.0000 0.34023  0.46407  0.43977  Biso   1.000  H
  H703     1.0000 0.34973  0.43677  0.49837  Biso   1.000  H
  C624     1.0000 0.21023  0.31547  0.75447  Biso   1.000  C
  H704     1.0000 0.20403  0.29047  0.76247  Biso   1.000  H
  H705     1.0000 0.18953  0.31617  0.72317  Biso   1.000  H
  C625     1.0000 0.19873  0.31657  0.96817  Biso   1.000  C
  H706     1.0000 0.21243  0.33097  0.03577  Biso   1.000  H
  C626     1.0000 0.19053  0.27967  0.99297  Biso   1.000  C
  H707     1.0000 0.21273  0.27887  0.99617  Biso   1.000  H
  H708     1.0000 0.17563  0.26377  0.93087  Biso   1.000  H
  C627     1.0000 0.17093  0.26707  0.10747  Biso   1.000  C
  H709     1.0000 0.16553  0.24267  0.12327  Biso   1.000  H
  H710     1.0000 0.18593  0.28247  0.17017  Biso   1.000  H
  C628     1.0000 0.13763  0.26847  0.10117  Biso   1.000  C
  H711     1.0000 0.12173  0.25127  0.04327  Biso   1.000  H
  H712     1.0000 0.12553  0.26157  0.17617  Biso   1.000  H
  C629     1.0000 0.14443  0.30417  0.07047  Biso   1.000  C
  H713     1.0000 0.12143  0.30327  0.06327  Biso   1.000  H
  H714     1.0000 0.15733  0.32037  0.13447  Biso   1.000  H
  C630     1.0000 0.16463  0.31947  0.96417  Biso   1.000  C
  H715     1.0000 0.14993  0.30447  0.89917  Biso   1.000  H
  C631     1.0000 0.16280  0.40505  0.94777  Biso   1.000  C
  C632     1.0000 0.13983  0.41377  0.00187  Biso   1.000  C
  H716     1.0000 0.12203  0.39727  0.05167  Biso   1.000  H
  C633     1.0000 0.14296  0.44657  0.98317  Biso   1.000  C
  C634     1.0000 0.16904  0.47073  0.91027  Biso   1.000  C
  H717     1.0000 0.17113  0.49317  0.89747  Biso   1.000  H
  C635     1.0000 0.19193  0.46197  0.85617  Biso   1.000  C
  C636     1.0000 0.18884  0.42917  0.87487  Biso   1.000  C
  C637     1.0000 0.22083  0.49017  0.77507  Biso   1.000  C
  C638     1.0000 0.21613  0.47417  0.65307  Biso   1.000  C
  H718     1.0000 0.21743  0.45247  0.65687  Biso   1.000  H
  H719     1.0000 0.19293  0.46867  0.62247  Biso   1.000  H
  H720     1.0000 0.23473  0.49117  0.60287  Biso   1.000  H
  C639     1.0000 0.25723  0.50087  0.81977  Biso   1.000  C
  H721     1.0000 0.25993  0.47997  0.82597  Biso   1.000  H
  H722     1.0000 0.27513  0.51787  0.76697  Biso   1.000  H
  H723     1.0000 0.26043  0.51177  0.89537  Biso   1.000  H
  C640     1.0000 0.21873  0.52327  0.76767  Biso   1.000  C
  H724     1.0000 0.19543  0.51767  0.73917  Biso   1.000  H
  H725     1.0000 0.22243  0.53397  0.84407  Biso   1.000  H
  H726     1.0000 0.23703  0.53997  0.71567  Biso   1.000  H
  C641     1.0000 0.11813  0.45657  0.04787  Biso   1.000  C
  C642     1.0000 0.09393  0.43337  0.12727  Biso   1.000  C
  H727     1.0000 0.09273  0.41147  0.14237  Biso   1.000  H
  C643     1.0000 0.07163  0.44237  0.18447  Biso   1.000  C
  H728     1.0000 0.05523  0.42657  0.23867  Biso   1.000  H
  N69      1.0000 0.07353  0.47447  0.16227  Biso   1.000  N
  C644     1.0000 0.09774  0.49767  0.08297  Biso   1.000  C
  H729     1.0000 0.09903  0.51967  0.06777  Biso   1.000  H
  C645     1.0000 0.12003  0.48867  0.02567  Biso   1.000  C
  H730     1.0000 0.13653  0.50457  0.97147  Biso   1.000  H
  C646     1.0000 0.15133  0.59847  0.35117  Biso   1.000  C
  N70      1.0000 0.14540  0.73214  0.94577  Biso   1.000  N
  C647     1.0000 0.16588  0.73132  0.03547  Biso   1.000  C
  H731     1.0000 0.18713  0.75207  0.05577  Biso   1.000  H
  C648     1.0000 0.15513  0.70007  0.09537  Biso   1.000  C
  H732     1.0000 0.16913  0.69957  0.15667  Biso   1.000  H
  C649     1.0000 0.12399  0.66973  0.06557  Biso   1.000  C
  C650     1.0000 0.10352  0.67056  0.97597  Biso   1.000  C
  H733     1.0000 0.08223  0.64977  0.95557  Biso   1.000  H
  C651     1.0000 0.11423  0.70177  0.91597  Biso   1.000  C
  H734     1.0000 0.10023  0.70237  0.85467  Biso   1.000  H
  C652     1.0000 0.13263  0.58727  0.46717  Biso   1.000  C
  H735     1.0000 0.12683  0.60497  0.49367  Biso   1.000  H
  H736     1.0000 0.11083  0.56437  0.45907  Biso   1.000  H
  H737     1.0000 0.14813  0.58507  0.52297  Biso   1.000  H
  C653     1.0000 0.11285  0.63499  0.12727  Biso   1.000  C
  C654     1.0000 0.08073  0.60497  0.10257  Biso   1.000  C
  H738     1.0000 0.06523  0.60617  0.04797  Biso   1.000  H
  C655     1.0000 0.07129  0.57333  0.15777  Biso   1.000  C
  C656     1.0000 0.09402  0.57166  0.23767  Biso   1.000  C
  C657     1.0000 0.12613  0.60167  0.26237  Biso   1.000  C
  C658     1.0000 0.13548  0.63332  0.20717  Biso   1.000  C
  H739     1.0000 0.15743  0.65377  0.22397  Biso   1.000  H
  C659     1.0000 0.15993  0.57127  0.31297  Biso   1.000  C
  H740     1.0000 0.17193  0.57807  0.23877  Biso   1.000  H
  H741     1.0000 0.17543  0.56917  0.36937  Biso   1.000  H
  H742     1.0000 0.13803  0.54847  0.30547  Biso   1.000  H
  C660     1.0000 0.18663  0.63527  0.36657  Biso   1.000  C
  H743     1.0000 0.18083  0.65317  0.39177  Biso   1.000  H
  H744     1.0000 0.20163  0.63287  0.42407  Biso   1.000  H
  H745     1.0000 0.19933  0.64257  0.29347  Biso   1.000  H
  C661     1.0000 0.03963  0.54427  0.11617  Biso   1.000  C
  H746     1.0000 0.02683  0.55017  0.06357  Biso   1.000  H
  C662     1.0000 0.99443  0.48417  0.08567  Biso   1.000  C
  H747     1.0000 0.00203  0.47067  0.03537  Biso   1.000  H
  C663     1.0000 0.97233  0.49397  0.01277  Biso   1.000  C
  H748     1.0000 0.98703  0.50957  0.94997  Biso   1.000  H
  H749     1.0000 0.96423  0.50747  0.05977  Biso   1.000  H
  C664     1.0000 0.93943  0.46127  0.96037  Biso   1.000  C
  H750     1.0000 0.92443  0.46907  0.92137  Biso   1.000  H
  H751     1.0000 0.94733  0.45017  0.90237  Biso   1.000  H
  C665     1.0000 0.91873  0.43527  0.04757  Biso   1.000  C
  H752     1.0000 0.90083  0.41347  0.00867  Biso   1.000  H
  H753     1.0000 0.90593  0.44447  0.09257  Biso   1.000  H
  C666     1.0000 0.93893  0.42567  0.12837  Biso   1.000  C
  H754     1.0000 0.94703  0.41117  0.08767  Biso   1.000  H
  H755     1.0000 0.92303  0.41117  0.19127  Biso   1.000  H
  C667     1.0000 0.97113  0.45867  0.17917  Biso   1.000  C
  H756     1.0000 0.96233  0.47127  0.22887  Biso   1.000  H
  C668     1.0000 0.97853  0.43537  0.35867  Biso   1.000  C
  H757     1.0000 0.95433  0.41527  0.34737  Biso   1.000  H
  H758     1.0000 0.97643  0.45387  0.40057  Biso   1.000  H
  C669     1.0000 0.99864  0.42287  0.43367  Biso   1.000  C
  C670     1.0000 0.03441  0.44435  0.45737  Biso   1.000  C
  C671     1.0000 0.05183  0.43177  0.52517  Biso   1.000  C
  C672     1.0000 0.03352  0.39767  0.56927  Biso   1.000  C
  H759     1.0000 0.04543  0.38907  0.61557  Biso   1.000  H
  C673     1.0000 0.99777  0.37621  0.54557  Biso   1.000  C
  C674     1.0000 0.98038  0.38882  0.47777  Biso   1.000  C
  H760     1.0000 0.95593  0.37417  0.46157  Biso   1.000  H
  C675     1.0000 0.09113  0.45537  0.55757  Biso   1.000  C
  C676     1.0000 0.15563  0.36847  0.96827  Biso   1.000  C
  H761     1.0000 0.13493  0.35237  0.00847  Biso   1.000  H
  C677     1.0000 0.09633  0.48707  0.61617  Biso   1.000  C
  H762     1.0000 0.12133  0.50187  0.63637  Biso   1.000  H
  H763     1.0000 0.08923  0.50027  0.56557  Biso   1.000  H
  H764     1.0000 0.08193  0.48027  0.68587  Biso   1.000  H
  C678     1.0000 0.11423  0.46667  0.44677  Biso   1.000  C
  H765     1.0000 0.11113  0.44567  0.40657  Biso   1.000  H
  H766     1.0000 0.10703  0.47997  0.39677  Biso   1.000  H
  H767     1.0000 0.13923  0.48167  0.46757  Biso   1.000  H
  C679     1.0000 0.10553  0.43557  0.63167  Biso   1.000  C
  H768     1.0000 0.10193  0.41447  0.59097  Biso   1.000  H
  H769     1.0000 0.13083  0.45117  0.64567  Biso   1.000  H
  H770     1.0000 0.09293  0.42877  0.70487  Biso   1.000  H
  C680     1.0000 0.97769  0.33773  0.58457  Biso   1.000  C
  C681     1.0000 0.94143  0.31797  0.56737  Biso   1.000  C
  H771     1.0000 0.92933  0.32847  0.53267  Biso   1.000  H
  C682     1.0000 0.92293  0.28277  0.60087  Biso   1.000  C
  H772     1.0000 0.89813  0.26917  0.58907  Biso   1.000  H
  N71      1.0000 0.94068  0.26732  0.65167  Biso   1.000  N
  C683     1.0000 0.97693  0.28707  0.66887  Biso   1.000  C
  H773     1.0000 0.98913  0.27657  0.70347  Biso   1.000  H
  C684     1.0000 0.99543  0.32227  0.63527  Biso   1.000  C
  H774     1.0000 0.02033  0.33587  0.64707  Biso   1.000  H
  N72      1.0000 0.02583  0.51187  0.13807  Biso   1.000  N
