data_image0
_cell_length_a       14.7663
_cell_length_b       26.944
_cell_length_c       24.182
_cell_angle_alpha    90
_cell_angle_beta     101.593
_cell_angle_gamma    90

_symmetry_space_group_name_H-M    "P 1"
_symmetry_int_tables_number       1

loop_
  _symmetry_equiv_pos_as_xyz
  'x, y, z'

loop_
  _atom_site_label
  _atom_site_occupancy
  _atom_site_fract_x
  _atom_site_fract_y
  _atom_site_fract_z
  _atom_site_thermal_displace_type
  _atom_site_B_iso_or_equiv
  _atom_site_type_symbol
  C1       1.0000 0.47400  0.73126  0.29367  Biso   1.000  C
  C2       1.0000 0.42340  0.68811  0.26788  Biso   1.000  C
  C3       1.0000 0.37020  0.67989  0.21421  Biso   1.000  C
  C4       1.0000 0.33510  0.63091  0.21334  Biso   1.000  C
  C5       1.0000 0.37000  0.61034  0.26684  Biso   1.000  C
  C6       1.0000 0.36440  0.56107  0.29224  Biso   1.000  C
  C7       1.0000 0.29620  0.52547  0.27297  Biso   1.000  C
  H1       1.0000 0.24920  0.53170  0.24070  Biso   1.000  H
  C8       1.0000 0.29850  0.48106  0.30180  Biso   1.000  C
  H2       1.0000 0.25300  0.45640  0.28940  Biso   1.000  H
  C9       1.0000 0.36740  0.47249  0.34882  Biso   1.000  C
  H3       1.0000 0.36940  0.44220  0.36920  Biso   1.000  H
  C10      1.0000 0.43380  0.50934  0.36578  Biso   1.000  C
  C11      1.0000 0.51050  0.50585  0.41491  Biso   1.000  C
  C12      1.0000 0.55510  0.46621  0.44678  Biso   1.000  C
  C13      1.0000 0.62850  0.48693  0.48727  Biso   1.000  C
  C14      1.0000 0.62570  0.53820  0.47869  Biso   1.000  C
  C15      1.0000 0.68500  0.57848  0.50470  Biso   1.000  C
  C16      1.0000 0.36150  0.71495  0.16515  Biso   1.000  C
  H4       1.0000 0.34950  0.74890  0.17760  Biso   1.000  H
  H5       1.0000 0.30840  0.70490  0.13530  Biso   1.000  H
  C17      1.0000 0.44920  0.71502  0.14121  Biso   1.000  C
  H6       1.0000 0.50150  0.72570  0.17050  Biso   1.000  H
  H7       1.0000 0.44180  0.73790  0.10910  Biso   1.000  H
  H8       1.0000 0.46090  0.68150  0.12860  Biso   1.000  H
  C18      1.0000 0.27570  0.60620  0.16308  Biso   1.000  C
  H9       1.0000 0.24710  0.63210  0.13610  Biso   1.000  H
  H10      1.0000 0.22520  0.58800  0.17570  Biso   1.000  H
  C19      1.0000 0.32790  0.57052  0.13300  Biso   1.000  C
  H11      1.0000 0.37710  0.58840  0.11950  Biso   1.000  H
  H12      1.0000 0.28540  0.55580  0.10080  Biso   1.000  H
  H13      1.0000 0.35520  0.54420  0.15910  Biso   1.000  H
  C20      1.0000 0.53440  0.41182  0.43897  Biso   1.000  C
  H14      1.0000 0.46730  0.40650  0.43620  Biso   1.000  H
  H15      1.0000 0.56740  0.39370  0.47270  Biso   1.000  H
  C21      1.0000 0.56240  0.39009  0.38650  Biso   1.000  C
  H16      1.0000 0.52810  0.40690  0.35280  Biso   1.000  H
  H17      1.0000 0.54810  0.35450  0.38410  Biso   1.000  H
  H18      1.0000 0.62890  0.39490  0.38900  Biso   1.000  H
  C22      1.0000 0.69610  0.45907  0.53166  Biso   1.000  C
  H19      1.0000 0.66460  0.42990  0.54390  Biso   1.000  H
  H20      1.0000 0.71550  0.48090  0.56490  Biso   1.000  H
  C23      1.0000 0.78180  0.44166  0.51095  Biso   1.000  C
  H21      1.0000 0.76300  0.42200  0.47640  Biso   1.000  H
  H22      1.0000 0.82010  0.42120  0.54010  Biso   1.000  H
  H23      1.0000 0.81740  0.47060  0.50300  Biso   1.000  H
  C24      1.0000 0.70450  0.83522  0.31911  Biso   1.000  C
  C25      1.0000 0.79440  0.85916  0.32360  Biso   1.000  C
  C26      1.0000 0.81910  0.90651  0.30861  Biso   1.000  C
  C27      1.0000 0.91510  0.91123  0.32786  Biso   1.000  C
  C28      1.0000 0.94690  0.86647  0.35458  Biso   1.000  C
  C29      1.0000 0.03690  0.85070  0.38676  Biso   1.000  C
  C30      1.0000 0.12150  0.86923  0.37780  Biso   1.000  C
  H24      1.0000 0.12340  0.89270  0.34870  Biso   1.000  H
  C31      1.0000 0.20180  0.85270  0.41220  Biso   1.000  C
  H25      1.0000 0.25990  0.86450  0.40660  Biso   1.000  H
  C32      1.0000 0.19810  0.81906  0.45473  Biso   1.000  C
  H26      1.0000 0.25290  0.80860  0.47970  Biso   1.000  H
  C33      1.0000 0.11170  0.80073  0.46027  Biso   1.000  C
  C34      1.0000 0.09790  0.76316  0.50177  Biso   1.000  C
  C35      1.0000 0.14930  0.74768  0.55416  Biso   1.000  C
  C36      1.0000 0.09600  0.71145  0.57570  Biso   1.000  C
  C37      1.0000 0.01470  0.70527  0.53545  Biso   1.000  C
  C38      1.0000 0.93040  0.67692  0.53583  Biso   1.000  C
  C39      1.0000 0.75500  0.94752  0.28208  Biso   1.000  C
  H27      1.0000 0.70340  0.93300  0.25430  Biso   1.000  H
  H28      1.0000 0.78910  0.97050  0.26170  Biso   1.000  H
  C40      1.0000 0.71590  0.97654  0.32634  Biso   1.000  C
  H29      1.0000 0.67960  0.95420  0.34540  Biso   1.000  H
  H30      1.0000 0.67620  0.00340  0.30790  Biso   1.000  H
  H31      1.0000 0.76690  0.99070  0.35420  Biso   1.000  H
  C41      1.0000 0.96970  0.95774  0.32275  Biso   1.000  C
  H32      1.0000 0.02660  0.95750  0.35240  Biso   1.000  H
  H33      1.0000 0.93260  0.98700  0.32930  Biso   1.000  H
  C42      1.0000 0.99620  0.96289  0.26521  Biso   1.000  C
  H34      1.0000 0.03790  0.93580  0.26000  Biso   1.000  H
  H35      1.0000 0.02730  0.99480  0.26320  Biso   1.000  H
  H36      1.0000 0.94030  0.96140  0.23550  Biso   1.000  H
  C43      1.0000 0.23850  0.76907  0.58600  Biso   1.000  C
  H37      1.0000 0.28030  0.77510  0.55940  Biso   1.000  H
  H38      1.0000 0.26870  0.74470  0.61440  Biso   1.000  H
  C44      1.0000 0.22420  0.81762  0.61573  Biso   1.000  C
  H39      1.0000 0.19620  0.84230  0.58760  Biso   1.000  H
  H40      1.0000 0.28400  0.82990  0.63630  Biso   1.000  H
  H41      1.0000 0.18320  0.81180  0.64230  Biso   1.000  H
  C45      1.0000 0.12000  0.68637  0.63275  Biso   1.000  C
  H42      1.0000 0.16390  0.70750  0.65890  Biso   1.000  H
  H43      1.0000 0.06320  0.68290  0.64830  Biso   1.000  H
  C46      1.0000 0.16250  0.63576  0.62930  Biso   1.000  C
  H44      1.0000 0.11800  0.61410  0.60510  Biso   1.000  H
  H45      1.0000 0.17890  0.62130  0.66720  Biso   1.000  H
  H46      1.0000 0.21830  0.63900  0.61340  Biso   1.000  H
  C47      1.0000 0.49000  0.86071  0.39439  Biso   1.000  C
  C48      1.0000 0.45480  0.88710  0.43870  Biso   1.000  C
  C49      1.0000 0.39620  0.92779  0.43789  Biso   1.000  C
  C50      1.0000 0.38560  0.93597  0.49418  Biso   1.000  C
  C51      1.0000 0.43650  0.89913  0.52763  Biso   1.000  C
  C52      1.0000 0.45030  0.88534  0.58765  Biso   1.000  C
  C53      1.0000 0.41800  0.91382  0.62804  Biso   1.000  C
  H47      1.0000 0.38430  0.94360  0.61760  Biso   1.000  H
  C54      1.0000 0.43610  0.89780  0.68355  Biso   1.000  C
  H48      1.0000 0.41520  0.91670  0.71170  Biso   1.000  H
  C55      1.0000 0.48460  0.85426  0.69789  Biso   1.000  C
  H49      1.0000 0.49870  0.84330  0.73600  Biso   1.000  H
  C56      1.0000 0.51260  0.82651  0.65509  Biso   1.000  C
  C57      1.0000 0.56070  0.77900  0.66550  Biso   1.000  C
  C58      1.0000 0.56030  0.74183  0.70586  Biso   1.000  C
  C59      1.0000 0.61690  0.70269  0.69321  Biso   1.000  C
  C60      1.0000 0.65000  0.71655  0.64526  Biso   1.000  C
  C61      1.0000 0.70690  0.68983  0.61202  Biso   1.000  C
  C62      1.0000 0.35340  0.95834  0.38678  Biso   1.000  C
  H50      1.0000 0.29280  0.97140  0.39170  Biso   1.000  H
  H51      1.0000 0.34270  0.93700  0.35280  Biso   1.000  H
  C63      1.0000 0.41610  0.00144  0.37858  Biso   1.000  C
  H52      1.0000 0.42490  0.02310  0.41180  Biso   1.000  H
  H53      1.0000 0.38750  0.02040  0.34500  Biso   1.000  H
  H54      1.0000 0.47600  0.98860  0.37370  Biso   1.000  H
  C64      1.0000 0.32490  0.97549  0.51183  Biso   1.000  C
  H55      1.0000 0.31480  0.00200  0.48290  Biso   1.000  H
  H56      1.0000 0.35760  0.99040  0.54770  Biso   1.000  H
  C65      1.0000 0.23220  0.95627  0.51970  Biso   1.000  C
  H57      1.0000 0.19750  0.94350  0.48360  Biso   1.000  H
  H58      1.0000 0.19740  0.98330  0.53280  Biso   1.000  H
  H59      1.0000 0.24150  0.92950  0.54770  Biso   1.000  H
  C66      1.0000 0.50110  0.73933  0.74994  Biso   1.000  C
  H60      1.0000 0.49910  0.77260  0.76710  Biso   1.000  H
  H61      1.0000 0.52990  0.71610  0.78010  Biso   1.000  H
  C67      1.0000 0.40330  0.72240  0.72601  Biso   1.000  C
  H62      1.0000 0.37470  0.74500  0.69570  Biso   1.000  H
  H63      1.0000 0.36730  0.72260  0.75590  Biso   1.000  H
  H64      1.0000 0.40450  0.68870  0.71090  Biso   1.000  H
  C68      1.0000 0.63860  0.65532  0.72601  Biso   1.000  C
  H65      1.0000 0.63350  0.62710  0.69930  Biso   1.000  H
  H66      1.0000 0.59240  0.65030  0.75000  Biso   1.000  H
  C69      1.0000 0.73520  0.65541  0.76331  Biso   1.000  C
  H67      1.0000 0.78140  0.65950  0.73970  Biso   1.000  H
  H68      1.0000 0.74580  0.62390  0.78380  Biso   1.000  H
  H69      1.0000 0.74040  0.68290  0.79030  Biso   1.000  H
  C70      1.0000 0.93850  0.58049  0.70036  Biso   1.000  C
  C71      1.0000 0.98580  0.54244  0.74120  Biso   1.000  C
  H70      1.0000 0.94530  0.51350  0.74070  Biso   1.000  H
  H71      1.0000 0.99950  0.55660  0.77930  Biso   1.000  H
  H72      1.0000 0.04350  0.53220  0.73040  Biso   1.000  H
  N1       1.0000 0.42281  0.64537  0.29870  Biso   1.000  N
  N2       1.0000 0.43144  0.55269  0.33779  Biso   1.000  N
  N3       1.0000 0.55444  0.54843  0.43488  Biso   1.000  N
  N4       1.0000 0.87259  0.83597  0.35198  Biso   1.000  N
  N5       1.0000 0.03300  0.81648  0.42686  Biso   1.000  N
  N6       1.0000 0.01712  0.73737  0.49182  Biso   1.000  N
  N7       1.0000 0.47780  0.87065  0.49335  Biso   1.000  N
  N8       1.0000 0.49606  0.84243  0.60099  Biso   1.000  N
  N9       1.0000 0.61525  0.76281  0.62950  Biso   1.000  N
  O1       1.0000 0.52027  0.72549  0.34367  Biso   1.000  O
  O2       1.0000 0.46946  0.77106  0.26553  Biso   1.000  O
  O3       1.0000 0.66119  0.62220  0.48743  Biso   1.000  O
  O4       1.0000 0.75752  0.56801  0.54105  Biso   1.000  O
  O5       1.0000 0.63427  0.85766  0.29171  Biso   1.000  O
  O6       1.0000 0.70304  0.79395  0.34432  Biso   1.000  O
  O7       1.0000 0.86359  0.68421  0.49469  Biso   1.000  O
  O8       1.0000 0.92979  0.64794  0.57687  Biso   1.000  O
  O9       1.0000 0.45765  0.87186  0.34314  Biso   1.000  O
  O10      1.0000 0.54998  0.82800  0.41073  Biso   1.000  O
  O11      1.0000 0.72357  0.71008  0.56847  Biso   1.000  O
  O12      1.0000 0.73609  0.64732  0.63051  Biso   1.000  O
  O13      1.0000 0.66060  0.74263  0.45907  Biso   1.000  O
  O14      1.0000 0.89191  0.56451  0.65418  Biso   1.000  O
  O15      1.0000 0.94363  0.62641  0.71199  Biso   1.000  O
  Zn1      1.0000 0.50370  0.83991  0.28114  Biso   1.000  Zn
  Zn2      1.0000 0.61315  0.76909  0.38648  Biso   1.000  Zn
  Zn3      1.0000 0.72965  0.68432  0.48701  Biso   1.000  Zn
  Zn4      1.0000 0.82848  0.61224  0.59834  Biso   1.000  Zn
  H73      1.0000 0.44200  0.64230  0.33410  Biso   1.000  H
  H74      1.0000 0.53500  0.57640  0.42510  Biso   1.000  H
  H75      1.0000 0.87700  0.80660  0.36210  Biso   1.000  H
  H76      1.0000 0.97300  0.73780  0.46390  Biso   1.000  H
  H77      1.0000 0.51700  0.85030  0.50540  Biso   1.000  H
  H78      1.0000 0.62600  0.77990  0.60200  Biso   1.000  H
  H79      1.0000 0.66100  0.76090  0.48020  Biso   1.000  H
  C72      1.0000 0.97400  0.76874  0.79367  Biso   1.000  C
  C73      1.0000 0.92340  0.81189  0.76788  Biso   1.000  C
  C74      1.0000 0.87020  0.82011  0.71421  Biso   1.000  C
  C75      1.0000 0.83510  0.86909  0.71334  Biso   1.000  C
  C76      1.0000 0.87000  0.88966  0.76684  Biso   1.000  C
  C77      1.0000 0.86440  0.93893  0.79224  Biso   1.000  C
  C78      1.0000 0.79620  0.97453  0.77297  Biso   1.000  C
  H80      1.0000 0.74920  0.96830  0.74070  Biso   1.000  H
  C79      1.0000 0.79850  0.01894  0.80180  Biso   1.000  C
  H81      1.0000 0.75300  0.04360  0.78940  Biso   1.000  H
  C80      1.0000 0.86740  0.02751  0.84882  Biso   1.000  C
  H82      1.0000 0.86940  0.05780  0.86920  Biso   1.000  H
  C81      1.0000 0.93380  0.99066  0.86578  Biso   1.000  C
  C82      1.0000 0.01050  0.99415  0.91491  Biso   1.000  C
  C83      1.0000 0.05510  0.03379  0.94678  Biso   1.000  C
  C84      1.0000 0.12850  0.01307  0.98727  Biso   1.000  C
  C85      1.0000 0.12570  0.96180  0.97869  Biso   1.000  C
  C86      1.0000 0.18500  0.92152  0.00470  Biso   1.000  C
  C87      1.0000 0.86150  0.78505  0.66515  Biso   1.000  C
  H83      1.0000 0.84950  0.75110  0.67760  Biso   1.000  H
  H84      1.0000 0.80840  0.79510  0.63530  Biso   1.000  H
  C88      1.0000 0.94920  0.78498  0.64121  Biso   1.000  C
  H85      1.0000 0.00150  0.77430  0.67050  Biso   1.000  H
  H86      1.0000 0.94180  0.76210  0.60910  Biso   1.000  H
  H87      1.0000 0.96090  0.81850  0.62860  Biso   1.000  H
  C89      1.0000 0.77570  0.89380  0.66308  Biso   1.000  C
  H88      1.0000 0.74710  0.86790  0.63610  Biso   1.000  H
  H89      1.0000 0.72520  0.91200  0.67570  Biso   1.000  H
  C90      1.0000 0.82790  0.92948  0.63300  Biso   1.000  C
  H90      1.0000 0.87710  0.91160  0.61950  Biso   1.000  H
  H91      1.0000 0.78540  0.94420  0.60080  Biso   1.000  H
  H92      1.0000 0.85520  0.95580  0.65910  Biso   1.000  H
  C91      1.0000 0.03440  0.08818  0.93897  Biso   1.000  C
  H93      1.0000 0.96730  0.09350  0.93620  Biso   1.000  H
  H94      1.0000 0.06740  0.10630  0.97270  Biso   1.000  H
  C92      1.0000 0.06240  0.10991  0.88650  Biso   1.000  C
  H95      1.0000 0.02810  0.09310  0.85280  Biso   1.000  H
  H96      1.0000 0.04810  0.14550  0.88410  Biso   1.000  H
  H97      1.0000 0.12890  0.10510  0.88900  Biso   1.000  H
  C93      1.0000 0.19610  0.04093  0.03166  Biso   1.000  C
  H98      1.0000 0.16460  0.07010  0.04390  Biso   1.000  H
  H99      1.0000 0.21550  0.01910  0.06490  Biso   1.000  H
  C94      1.0000 0.28180  0.05834  0.01095  Biso   1.000  C
  H100     1.0000 0.26300  0.07800  0.97640  Biso   1.000  H
  H101     1.0000 0.32010  0.07880  0.04010  Biso   1.000  H
  H102     1.0000 0.31740  0.02940  0.00300  Biso   1.000  H
  C95      1.0000 0.20450  0.66478  0.81911  Biso   1.000  C
  C96      1.0000 0.29440  0.64084  0.82360  Biso   1.000  C
  C97      1.0000 0.31910  0.59349  0.80861  Biso   1.000  C
  C98      1.0000 0.41510  0.58877  0.82786  Biso   1.000  C
  C99      1.0000 0.44690  0.63353  0.85458  Biso   1.000  C
  C100     1.0000 0.53690  0.64930  0.88676  Biso   1.000  C
  C101     1.0000 0.62150  0.63077  0.87780  Biso   1.000  C
  H103     1.0000 0.62340  0.60730  0.84870  Biso   1.000  H
  C102     1.0000 0.70180  0.64730  0.91220  Biso   1.000  C
  H104     1.0000 0.75990  0.63550  0.90660  Biso   1.000  H
  C103     1.0000 0.69810  0.68094  0.95473  Biso   1.000  C
  H105     1.0000 0.75290  0.69140  0.97970  Biso   1.000  H
  C104     1.0000 0.61170  0.69927  0.96027  Biso   1.000  C
  C105     1.0000 0.59790  0.73684  0.00177  Biso   1.000  C
  C106     1.0000 0.64930  0.75232  0.05416  Biso   1.000  C
  C107     1.0000 0.59600  0.78855  0.07570  Biso   1.000  C
  C108     1.0000 0.51470  0.79473  0.03545  Biso   1.000  C
  C109     1.0000 0.43040  0.82308  0.03583  Biso   1.000  C
  C110     1.0000 0.25500  0.55248  0.78208  Biso   1.000  C
  H106     1.0000 0.20340  0.56700  0.75430  Biso   1.000  H
  H107     1.0000 0.28910  0.52950  0.76170  Biso   1.000  H
  C111     1.0000 0.21590  0.52346  0.82634  Biso   1.000  C
  H108     1.0000 0.17960  0.54580  0.84540  Biso   1.000  H
  H109     1.0000 0.17620  0.49660  0.80790  Biso   1.000  H
  H110     1.0000 0.26690  0.50930  0.85420  Biso   1.000  H
  C112     1.0000 0.46970  0.54226  0.82275  Biso   1.000  C
  H111     1.0000 0.52660  0.54250  0.85240  Biso   1.000  H
  H112     1.0000 0.43260  0.51300  0.82930  Biso   1.000  H
  C113     1.0000 0.49620  0.53711  0.76521  Biso   1.000  C
  H113     1.0000 0.53790  0.56420  0.76000  Biso   1.000  H
  H114     1.0000 0.52730  0.50520  0.76320  Biso   1.000  H
  H115     1.0000 0.44030  0.53860  0.73550  Biso   1.000  H
  C114     1.0000 0.73850  0.73093  0.08600  Biso   1.000  C
  H116     1.0000 0.78030  0.72490  0.05940  Biso   1.000  H
  H117     1.0000 0.76870  0.75530  0.11440  Biso   1.000  H
  C115     1.0000 0.72420  0.68238  0.11573  Biso   1.000  C
  H118     1.0000 0.69620  0.65770  0.08760  Biso   1.000  H
  H119     1.0000 0.78400  0.67010  0.13630  Biso   1.000  H
  H120     1.0000 0.68320  0.68820  0.14230  Biso   1.000  H
  C116     1.0000 0.62000  0.81363  0.13275  Biso   1.000  C
  H121     1.0000 0.66390  0.79250  0.15890  Biso   1.000  H
  H122     1.0000 0.56320  0.81710  0.14830  Biso   1.000  H
  C117     1.0000 0.66250  0.86424  0.12930  Biso   1.000  C
  H123     1.0000 0.61800  0.88590  0.10510  Biso   1.000  H
  H124     1.0000 0.67890  0.87870  0.16720  Biso   1.000  H
  H125     1.0000 0.71830  0.86100  0.11340  Biso   1.000  H
  C118     1.0000 0.99000  0.63929  0.89439  Biso   1.000  C
  C119     1.0000 0.95480  0.61290  0.93870  Biso   1.000  C
  C120     1.0000 0.89620  0.57221  0.93789  Biso   1.000  C
  C121     1.0000 0.88560  0.56403  0.99418  Biso   1.000  C
  C122     1.0000 0.93650  0.60087  0.02763  Biso   1.000  C
  C123     1.0000 0.95030  0.61466  0.08765  Biso   1.000  C
  C124     1.0000 0.91800  0.58618  0.12804  Biso   1.000  C
  H126     1.0000 0.88430  0.55640  0.11760  Biso   1.000  H
  C125     1.0000 0.93610  0.60220  0.18355  Biso   1.000  C
  H127     1.0000 0.91520  0.58330  0.21170  Biso   1.000  H
  C126     1.0000 0.98460  0.64574  0.19789  Biso   1.000  C
  H128     1.0000 0.99870  0.65670  0.23600  Biso   1.000  H
  C127     1.0000 0.01260  0.67349  0.15509  Biso   1.000  C
  C128     1.0000 0.06070  0.72100  0.16550  Biso   1.000  C
  C129     1.0000 0.06030  0.75817  0.20586  Biso   1.000  C
  C130     1.0000 0.11690  0.79731  0.19321  Biso   1.000  C
  C131     1.0000 0.15000  0.78345  0.14526  Biso   1.000  C
  C132     1.0000 0.20690  0.81017  0.11202  Biso   1.000  C
  C133     1.0000 0.85340  0.54166  0.88678  Biso   1.000  C
  H129     1.0000 0.79280  0.52860  0.89170  Biso   1.000  H
  H130     1.0000 0.84270  0.56300  0.85280  Biso   1.000  H
  C134     1.0000 0.91610  0.49856  0.87858  Biso   1.000  C
  H131     1.0000 0.92490  0.47690  0.91180  Biso   1.000  H
  H132     1.0000 0.88750  0.47960  0.84500  Biso   1.000  H
  H133     1.0000 0.97600  0.51140  0.87370  Biso   1.000  H
  C135     1.0000 0.82490  0.52451  0.01183  Biso   1.000  C
  H134     1.0000 0.81480  0.49800  0.98290  Biso   1.000  H
  H135     1.0000 0.85760  0.50960  0.04770  Biso   1.000  H
  C136     1.0000 0.73220  0.54373  0.01970  Biso   1.000  C
  H136     1.0000 0.69750  0.55650  0.98360  Biso   1.000  H
  H137     1.0000 0.69740  0.51670  0.03280  Biso   1.000  H
  H138     1.0000 0.74150  0.57050  0.04770  Biso   1.000  H
  C137     1.0000 0.00110  0.76067  0.24994  Biso   1.000  C
  H139     1.0000 0.99910  0.72740  0.26710  Biso   1.000  H
  H140     1.0000 0.02990  0.78390  0.28010  Biso   1.000  H
  C138     1.0000 0.90330  0.77760  0.22601  Biso   1.000  C
  H141     1.0000 0.87470  0.75500  0.19570  Biso   1.000  H
  H142     1.0000 0.86730  0.77740  0.25590  Biso   1.000  H
  H143     1.0000 0.90450  0.81130  0.21090  Biso   1.000  H
  C139     1.0000 0.13860  0.84468  0.22601  Biso   1.000  C
  H144     1.0000 0.13350  0.87290  0.19930  Biso   1.000  H
  H145     1.0000 0.09240  0.84970  0.25000  Biso   1.000  H
  C140     1.0000 0.23520  0.84459  0.26331  Biso   1.000  C
  H146     1.0000 0.28140  0.84050  0.23970  Biso   1.000  H
  H147     1.0000 0.24580  0.87610  0.28380  Biso   1.000  H
  H148     1.0000 0.24040  0.81710  0.29030  Biso   1.000  H
  C141     1.0000 0.43850  0.91951  0.20036  Biso   1.000  C
  C142     1.0000 0.48580  0.95756  0.24120  Biso   1.000  C
  H149     1.0000 0.44530  0.98650  0.24070  Biso   1.000  H
  H150     1.0000 0.49950  0.94340  0.27930  Biso   1.000  H
  H151     1.0000 0.54350  0.96780  0.23040  Biso   1.000  H
  N10      1.0000 0.92281  0.85463  0.79870  Biso   1.000  N
  N11      1.0000 0.93144  0.94731  0.83779  Biso   1.000  N
  N12      1.0000 0.05444  0.95157  0.93488  Biso   1.000  N
  N13      1.0000 0.37259  0.66403  0.85198  Biso   1.000  N
  N14      1.0000 0.53300  0.68352  0.92686  Biso   1.000  N
  N15      1.0000 0.51712  0.76263  0.99182  Biso   1.000  N
  N16      1.0000 0.97780  0.62935  0.99335  Biso   1.000  N
  N17      1.0000 0.99606  0.65757  0.10099  Biso   1.000  N
  N18      1.0000 0.11525  0.73719  0.12950  Biso   1.000  N
  O16      1.0000 0.02027  0.77451  0.84367  Biso   1.000  O
  O17      1.0000 0.96946  0.72894  0.76553  Biso   1.000  O
  O18      1.0000 0.16119  0.87780  0.98743  Biso   1.000  O
  O19      1.0000 0.25752  0.93199  0.04105  Biso   1.000  O
  O20      1.0000 0.13427  0.64234  0.79171  Biso   1.000  O
  O21      1.0000 0.20304  0.70605  0.84432  Biso   1.000  O
  O22      1.0000 0.36359  0.81579  0.99469  Biso   1.000  O
  O23      1.0000 0.42979  0.85206  0.07687  Biso   1.000  O
  O24      1.0000 0.95765  0.62814  0.84314  Biso   1.000  O
  O25      1.0000 0.04998  0.67200  0.91073  Biso   1.000  O
  O26      1.0000 0.22357  0.78992  0.06847  Biso   1.000  O
  O27      1.0000 0.23609  0.85268  0.13051  Biso   1.000  O
  O28      1.0000 0.16060  0.75737  0.95907  Biso   1.000  O
  O29      1.0000 0.39191  0.93549  0.15418  Biso   1.000  O
  O30      1.0000 0.44363  0.87359  0.21199  Biso   1.000  O
  Zn5      1.0000 0.00370  0.66009  0.78114  Biso   1.000  Zn
  Zn6      1.0000 0.11315  0.73091  0.88648  Biso   1.000  Zn
  Zn7      1.0000 0.22965  0.81568  0.98701  Biso   1.000  Zn
  Zn8      1.0000 0.32848  0.88776  0.09834  Biso   1.000  Zn
  H152     1.0000 0.94200  0.85770  0.83410  Biso   1.000  H
  H153     1.0000 0.03500  0.92360  0.92510  Biso   1.000  H
  H154     1.0000 0.37700  0.69340  0.86210  Biso   1.000  H
  H155     1.0000 0.47300  0.76220  0.96390  Biso   1.000  H
  H156     1.0000 0.01700  0.64970  0.00540  Biso   1.000  H
  H157     1.0000 0.12600  0.72010  0.10200  Biso   1.000  H
  H158     1.0000 0.16100  0.73910  0.98020  Biso   1.000  H
  C143     1.0000 0.02600  0.23126  0.20633  Biso   1.000  C
  C144     1.0000 0.07660  0.18811  0.23212  Biso   1.000  C
  C145     1.0000 0.12980  0.17989  0.28579  Biso   1.000  C
  C146     1.0000 0.16490  0.13091  0.28666  Biso   1.000  C
  C147     1.0000 0.13000  0.11034  0.23316  Biso   1.000  C
  C148     1.0000 0.13560  0.06107  0.20776  Biso   1.000  C
  C149     1.0000 0.20380  0.02547  0.22703  Biso   1.000  C
  H159     1.0000 0.25080  0.03170  0.25930  Biso   1.000  H
  C150     1.0000 0.20150  0.98106  0.19820  Biso   1.000  C
  H160     1.0000 0.24700  0.95640  0.21060  Biso   1.000  H
  C151     1.0000 0.13260  0.97249  0.15118  Biso   1.000  C
  H161     1.0000 0.13060  0.94220  0.13080  Biso   1.000  H
  C152     1.0000 0.06620  0.00934  0.13422  Biso   1.000  C
  C153     1.0000 0.98950  0.00585  0.08509  Biso   1.000  C
  C154     1.0000 0.94490  0.96621  0.05322  Biso   1.000  C
  C155     1.0000 0.87150  0.98693  0.01273  Biso   1.000  C
  C156     1.0000 0.87430  0.03820  0.02131  Biso   1.000  C
  C157     1.0000 0.81500  0.07848  0.99530  Biso   1.000  C
  C158     1.0000 0.13850  0.21495  0.33485  Biso   1.000  C
  H162     1.0000 0.15050  0.24890  0.32240  Biso   1.000  H
  H163     1.0000 0.19160  0.20490  0.36470  Biso   1.000  H
  C159     1.0000 0.05080  0.21502  0.35879  Biso   1.000  C
  H164     1.0000 0.99850  0.22570  0.32950  Biso   1.000  H
  H165     1.0000 0.05820  0.23790  0.39090  Biso   1.000  H
  H166     1.0000 0.03910  0.18150  0.37140  Biso   1.000  H
  C160     1.0000 0.22430  0.10620  0.33692  Biso   1.000  C
  H167     1.0000 0.25290  0.13210  0.36390  Biso   1.000  H
  H168     1.0000 0.27480  0.08800  0.32430  Biso   1.000  H
  C161     1.0000 0.17210  0.07052  0.36700  Biso   1.000  C
  H169     1.0000 0.12290  0.08840  0.38050  Biso   1.000  H
  H170     1.0000 0.21460  0.05580  0.39920  Biso   1.000  H
  H171     1.0000 0.14480  0.04420  0.34090  Biso   1.000  H
  C162     1.0000 0.96560  0.91182  0.06103  Biso   1.000  C
  H172     1.0000 0.03270  0.90650  0.06380  Biso   1.000  H
  H173     1.0000 0.93260  0.89370  0.02730  Biso   1.000  H
  C163     1.0000 0.93760  0.89009  0.11350  Biso   1.000  C
  H174     1.0000 0.97190  0.90690  0.14720  Biso   1.000  H
  H175     1.0000 0.95190  0.85450  0.11590  Biso   1.000  H
  H176     1.0000 0.87110  0.89490  0.11100  Biso   1.000  H
  C164     1.0000 0.80390  0.95907  0.96834  Biso   1.000  C
  H177     1.0000 0.83540  0.92990  0.95610  Biso   1.000  H
  H178     1.0000 0.78450  0.98090  0.93510  Biso   1.000  H
  C165     1.0000 0.71820  0.94166  0.98905  Biso   1.000  C
  H179     1.0000 0.73700  0.92200  0.02360  Biso   1.000  H
  H180     1.0000 0.67990  0.92120  0.95990  Biso   1.000  H
  H181     1.0000 0.68260  0.97060  0.99700  Biso   1.000  H
  C166     1.0000 0.79550  0.33522  0.18089  Biso   1.000  C
  C167     1.0000 0.70560  0.35916  0.17640  Biso   1.000  C
  C168     1.0000 0.68090  0.40651  0.19139  Biso   1.000  C
  C169     1.0000 0.58490  0.41123  0.17214  Biso   1.000  C
  C170     1.0000 0.55310  0.36647  0.14542  Biso   1.000  C
  C171     1.0000 0.46310  0.35070  0.11324  Biso   1.000  C
  C172     1.0000 0.37850  0.36923  0.12220  Biso   1.000  C
  H182     1.0000 0.37660  0.39270  0.15130  Biso   1.000  H
  C173     1.0000 0.29820  0.35270  0.08780  Biso   1.000  C
  H183     1.0000 0.24010  0.36450  0.09340  Biso   1.000  H
  C174     1.0000 0.30190  0.31906  0.04527  Biso   1.000  C
  H184     1.0000 0.24710  0.30860  0.02030  Biso   1.000  H
  C175     1.0000 0.38830  0.30073  0.03973  Biso   1.000  C
  C176     1.0000 0.40210  0.26316  0.99823  Biso   1.000  C
  C177     1.0000 0.35070  0.24768  0.94584  Biso   1.000  C
  C178     1.0000 0.40400  0.21145  0.92430  Biso   1.000  C
  C179     1.0000 0.48530  0.20527  0.96455  Biso   1.000  C
  C180     1.0000 0.56960  0.17692  0.96417  Biso   1.000  C
  C181     1.0000 0.74500  0.44752  0.21792  Biso   1.000  C
  H185     1.0000 0.79660  0.43300  0.24570  Biso   1.000  H
  H186     1.0000 0.71090  0.47050  0.23830  Biso   1.000  H
  C182     1.0000 0.78410  0.47654  0.17366  Biso   1.000  C
  H187     1.0000 0.82040  0.45420  0.15460  Biso   1.000  H
  H188     1.0000 0.82380  0.50340  0.19210  Biso   1.000  H
  H189     1.0000 0.73310  0.49070  0.14580  Biso   1.000  H
  C183     1.0000 0.53030  0.45774  0.17725  Biso   1.000  C
  H190     1.0000 0.47340  0.45750  0.14760  Biso   1.000  H
  H191     1.0000 0.56740  0.48700  0.17070  Biso   1.000  H
  C184     1.0000 0.50380  0.46289  0.23479  Biso   1.000  C
  H192     1.0000 0.46210  0.43580  0.24000  Biso   1.000  H
  H193     1.0000 0.47270  0.49480  0.23680  Biso   1.000  H
  H194     1.0000 0.55970  0.46140  0.26450  Biso   1.000  H
  C185     1.0000 0.26150  0.26907  0.91400  Biso   1.000  C
  H195     1.0000 0.21970  0.27510  0.94060  Biso   1.000  H
  H196     1.0000 0.23130  0.24470  0.88560  Biso   1.000  H
  C186     1.0000 0.27580  0.31762  0.88427  Biso   1.000  C
  H197     1.0000 0.30380  0.34230  0.91240  Biso   1.000  H
  H198     1.0000 0.21600  0.32990  0.86370  Biso   1.000  H
  H199     1.0000 0.31680  0.31180  0.85770  Biso   1.000  H
  C187     1.0000 0.38000  0.18637  0.86725  Biso   1.000  C
  H200     1.0000 0.33610  0.20750  0.84110  Biso   1.000  H
  H201     1.0000 0.43680  0.18290  0.85170  Biso   1.000  H
  C188     1.0000 0.33750  0.13576  0.87070  Biso   1.000  C
  H202     1.0000 0.38200  0.11410  0.89490  Biso   1.000  H
  H203     1.0000 0.32110  0.12130  0.83280  Biso   1.000  H
  H204     1.0000 0.28170  0.13900  0.88660  Biso   1.000  H
  C189     1.0000 0.01000  0.36071  0.10561  Biso   1.000  C
  C190     1.0000 0.04520  0.38710  0.06130  Biso   1.000  C
  C191     1.0000 0.10380  0.42779  0.06211  Biso   1.000  C
  C192     1.0000 0.11440  0.43597  0.00582  Biso   1.000  C
  C193     1.0000 0.06350  0.39913  0.97237  Biso   1.000  C
  C194     1.0000 0.04970  0.38534  0.91235  Biso   1.000  C
  C195     1.0000 0.08200  0.41382  0.87196  Biso   1.000  C
  H205     1.0000 0.11570  0.44360  0.88240  Biso   1.000  H
  C196     1.0000 0.06390  0.39780  0.81645  Biso   1.000  C
  H206     1.0000 0.08480  0.41670  0.78830  Biso   1.000  H
  C197     1.0000 0.01540  0.35426  0.80211  Biso   1.000  C
  H207     1.0000 0.00130  0.34330  0.76400  Biso   1.000  H
  C198     1.0000 0.98740  0.32651  0.84491  Biso   1.000  C
  C199     1.0000 0.93930  0.27900  0.83450  Biso   1.000  C
  C200     1.0000 0.93970  0.24183  0.79414  Biso   1.000  C
  C201     1.0000 0.88310  0.20269  0.80679  Biso   1.000  C
  C202     1.0000 0.85000  0.21655  0.85474  Biso   1.000  C
  C203     1.0000 0.79310  0.18983  0.88798  Biso   1.000  C
  C204     1.0000 0.14660  0.45834  0.11322  Biso   1.000  C
  H208     1.0000 0.20720  0.47140  0.10830  Biso   1.000  H
  H209     1.0000 0.15730  0.43700  0.14720  Biso   1.000  H
  C205     1.0000 0.08390  0.50144  0.12142  Biso   1.000  C
  H210     1.0000 0.07510  0.52310  0.08820  Biso   1.000  H
  H211     1.0000 0.11250  0.52040  0.15500  Biso   1.000  H
  H212     1.0000 0.02400  0.48860  0.12630  Biso   1.000  H
  C206     1.0000 0.17510  0.47549  0.98817  Biso   1.000  C
  H213     1.0000 0.18520  0.50200  0.01710  Biso   1.000  H
  H214     1.0000 0.14240  0.49040  0.95230  Biso   1.000  H
  C207     1.0000 0.26780  0.45627  0.98030  Biso   1.000  C
  H215     1.0000 0.30250  0.44350  0.01640  Biso   1.000  H
  H216     1.0000 0.30260  0.48330  0.96720  Biso   1.000  H
  H217     1.0000 0.25850  0.42950  0.95230  Biso   1.000  H
  C208     1.0000 0.99890  0.23933  0.75006  Biso   1.000  C
  H218     1.0000 0.00090  0.27260  0.73290  Biso   1.000  H
  H219     1.0000 0.97010  0.21610  0.71990  Biso   1.000  H
  C209     1.0000 0.09670  0.22240  0.77399  Biso   1.000  C
  H220     1.0000 0.12530  0.24500  0.80430  Biso   1.000  H
  H221     1.0000 0.13270  0.22260  0.74410  Biso   1.000  H
  H222     1.0000 0.09550  0.18870  0.78910  Biso   1.000  H
  C210     1.0000 0.86140  0.15532  0.77399  Biso   1.000  C
  H223     1.0000 0.86650  0.12710  0.80070  Biso   1.000  H
  H224     1.0000 0.90760  0.15030  0.75000  Biso   1.000  H
  C211     1.0000 0.76480  0.15541  0.73669  Biso   1.000  C
  H225     1.0000 0.71860  0.15950  0.76030  Biso   1.000  H
  H226     1.0000 0.75420  0.12390  0.71620  Biso   1.000  H
  H227     1.0000 0.75960  0.18290  0.70970  Biso   1.000  H
  C212     1.0000 0.56150  0.08049  0.79964  Biso   1.000  C
  C213     1.0000 0.51420  0.04244  0.75880  Biso   1.000  C
  H228     1.0000 0.55470  0.01350  0.75930  Biso   1.000  H
  H229     1.0000 0.50050  0.05660  0.72070  Biso   1.000  H
  H230     1.0000 0.45650  0.03220  0.76960  Biso   1.000  H
  N19      1.0000 0.07719  0.14537  0.20130  Biso   1.000  N
  N20      1.0000 0.06856  0.05269  0.16221  Biso   1.000  N
  N21      1.0000 0.94556  0.04843  0.06512  Biso   1.000  N
  N22      1.0000 0.62741  0.33597  0.14802  Biso   1.000  N
  N23      1.0000 0.46700  0.31648  0.07314  Biso   1.000  N
  N24      1.0000 0.48288  0.23737  0.00818  Biso   1.000  N
  N25      1.0000 0.02220  0.37065  0.00665  Biso   1.000  N
  N26      1.0000 0.00394  0.34243  0.89901  Biso   1.000  N
  N27      1.0000 0.88475  0.26281  0.87050  Biso   1.000  N
  O31      1.0000 0.97973  0.22549  0.15633  Biso   1.000  O
  O32      1.0000 0.03054  0.27106  0.23447  Biso   1.000  O
  O33      1.0000 0.83881  0.12220  0.01257  Biso   1.000  O
  O34      1.0000 0.74248  0.06801  0.95895  Biso   1.000  O
  O35      1.0000 0.86573  0.35766  0.20829  Biso   1.000  O
  O36      1.0000 0.79696  0.29395  0.15568  Biso   1.000  O
  O37      1.0000 0.63641  0.18421  0.00531  Biso   1.000  O
  O38      1.0000 0.57021  0.14794  0.92313  Biso   1.000  O
  O39      1.0000 0.04235  0.37186  0.15686  Biso   1.000  O
  O40      1.0000 0.95002  0.32800  0.08927  Biso   1.000  O
  O41      1.0000 0.77643  0.21008  0.93153  Biso   1.000  O
  O42      1.0000 0.76391  0.14732  0.86949  Biso   1.000  O
  O43      1.0000 0.83940  0.24263  0.04093  Biso   1.000  O
  O44      1.0000 0.60809  0.06451  0.84582  Biso   1.000  O
  O45      1.0000 0.55637  0.12641  0.78801  Biso   1.000  O
  Zn9      1.0000 0.99630  0.33991  0.21886  Biso   1.000  Zn
  Zn10     1.0000 0.88685  0.26909  0.11352  Biso   1.000  Zn
  Zn11     1.0000 0.77035  0.18432  0.01299  Biso   1.000  Zn
  Zn12     1.0000 0.67152  0.11224  0.90166  Biso   1.000  Zn
  H231     1.0000 0.05800  0.14230  0.16590  Biso   1.000  H
  H232     1.0000 0.96500  0.07640  0.07490  Biso   1.000  H
  H233     1.0000 0.62300  0.30660  0.13790  Biso   1.000  H
  H234     1.0000 0.52700  0.23780  0.03610  Biso   1.000  H
  H235     1.0000 0.98300  0.35030  0.99460  Biso   1.000  H
  H236     1.0000 0.87400  0.27990  0.89800  Biso   1.000  H
  H237     1.0000 0.83900  0.26090  0.01980  Biso   1.000  H
  C214     1.0000 0.52600  0.26874  0.70633  Biso   1.000  C
  C215     1.0000 0.57660  0.31189  0.73212  Biso   1.000  C
  C216     1.0000 0.62980  0.32011  0.78579  Biso   1.000  C
  C217     1.0000 0.66490  0.36909  0.78666  Biso   1.000  C
  C218     1.0000 0.63000  0.38966  0.73316  Biso   1.000  C
  C219     1.0000 0.63560  0.43893  0.70776  Biso   1.000  C
  C220     1.0000 0.70380  0.47453  0.72703  Biso   1.000  C
  H238     1.0000 0.75080  0.46830  0.75930  Biso   1.000  H
  C221     1.0000 0.70150  0.51894  0.69820  Biso   1.000  C
  H239     1.0000 0.74700  0.54360  0.71060  Biso   1.000  H
  C222     1.0000 0.63260  0.52751  0.65118  Biso   1.000  C
  H240     1.0000 0.63060  0.55780  0.63080  Biso   1.000  H
  C223     1.0000 0.56620  0.49066  0.63422  Biso   1.000  C
  C224     1.0000 0.48950  0.49415  0.58509  Biso   1.000  C
  C225     1.0000 0.44490  0.53379  0.55322  Biso   1.000  C
  C226     1.0000 0.37150  0.51307  0.51273  Biso   1.000  C
  C227     1.0000 0.37430  0.46180  0.52131  Biso   1.000  C
  C228     1.0000 0.31500  0.42152  0.49530  Biso   1.000  C
  C229     1.0000 0.63850  0.28505  0.83485  Biso   1.000  C
  H241     1.0000 0.65050  0.25110  0.82240  Biso   1.000  H
  H242     1.0000 0.69160  0.29510  0.86470  Biso   1.000  H
  C230     1.0000 0.55080  0.28498  0.85879  Biso   1.000  C
  H243     1.0000 0.49850  0.27430  0.82950  Biso   1.000  H
  H244     1.0000 0.55820  0.26210  0.89090  Biso   1.000  H
  H245     1.0000 0.53910  0.31850  0.87140  Biso   1.000  H
  C231     1.0000 0.72430  0.39380  0.83692  Biso   1.000  C
  H246     1.0000 0.75290  0.36790  0.86390  Biso   1.000  H
  H247     1.0000 0.77480  0.41200  0.82430  Biso   1.000  H
  C232     1.0000 0.67210  0.42948  0.86700  Biso   1.000  C
  H248     1.0000 0.62290  0.41160  0.88050  Biso   1.000  H
  H249     1.0000 0.71460  0.44420  0.89920  Biso   1.000  H
  H250     1.0000 0.64480  0.45580  0.84090  Biso   1.000  H
  C233     1.0000 0.46560  0.58818  0.56103  Biso   1.000  C
  H251     1.0000 0.53270  0.59350  0.56380  Biso   1.000  H
  H252     1.0000 0.43260  0.60630  0.52730  Biso   1.000  H
  C234     1.0000 0.43760  0.60991  0.61350  Biso   1.000  C
  H253     1.0000 0.47190  0.59310  0.64720  Biso   1.000  H
  H254     1.0000 0.45190  0.64550  0.61590  Biso   1.000  H
  H255     1.0000 0.37110  0.60510  0.61100  Biso   1.000  H
  C235     1.0000 0.30390  0.54093  0.46834  Biso   1.000  C
  H256     1.0000 0.33540  0.57010  0.45610  Biso   1.000  H
  H257     1.0000 0.28450  0.51910  0.43510  Biso   1.000  H
  C236     1.0000 0.21820  0.55834  0.48905  Biso   1.000  C
  H258     1.0000 0.23700  0.57800  0.52360  Biso   1.000  H
  H259     1.0000 0.17990  0.57880  0.45990  Biso   1.000  H
  H260     1.0000 0.18260  0.52940  0.49700  Biso   1.000  H
  C237     1.0000 0.29550  0.16478  0.68089  Biso   1.000  C
  C238     1.0000 0.20560  0.14084  0.67640  Biso   1.000  C
  C239     1.0000 0.18090  0.09349  0.69139  Biso   1.000  C
  C240     1.0000 0.08490  0.08877  0.67214  Biso   1.000  C
  C241     1.0000 0.05310  0.13353  0.64542  Biso   1.000  C
  C242     1.0000 0.96310  0.14930  0.61324  Biso   1.000  C
  C243     1.0000 0.87850  0.13077  0.62220  Biso   1.000  C
  H261     1.0000 0.87660  0.10730  0.65130  Biso   1.000  H
  C244     1.0000 0.79820  0.14730  0.58780  Biso   1.000  C
  H262     1.0000 0.74010  0.13550  0.59340  Biso   1.000  H
  C245     1.0000 0.80190  0.18094  0.54527  Biso   1.000  C
  H263     1.0000 0.74710  0.19140  0.52030  Biso   1.000  H
  C246     1.0000 0.88830  0.19927  0.53973  Biso   1.000  C
  C247     1.0000 0.90210  0.23684  0.49823  Biso   1.000  C
  C248     1.0000 0.85070  0.25232  0.44584  Biso   1.000  C
  C249     1.0000 0.90400  0.28855  0.42430  Biso   1.000  C
  C250     1.0000 0.98530  0.29473  0.46455  Biso   1.000  C
  C251     1.0000 0.06960  0.32308  0.46417  Biso   1.000  C
  C252     1.0000 0.24500  0.05248  0.71792  Biso   1.000  C
  H264     1.0000 0.29660  0.06700  0.74570  Biso   1.000  H
  H265     1.0000 0.21090  0.02950  0.73830  Biso   1.000  H
  C253     1.0000 0.28410  0.02346  0.67366  Biso   1.000  C
  H266     1.0000 0.32040  0.04580  0.65460  Biso   1.000  H
  H267     1.0000 0.32380  0.99660  0.69210  Biso   1.000  H
  H268     1.0000 0.23310  0.00930  0.64580  Biso   1.000  H
  C254     1.0000 0.03030  0.04226  0.67725  Biso   1.000  C
  H269     1.0000 0.97340  0.04250  0.64760  Biso   1.000  H
  H270     1.0000 0.06740  0.01300  0.67070  Biso   1.000  H
  C255     1.0000 0.00380  0.03711  0.73479  Biso   1.000  C
  H271     1.0000 0.96210  0.06420  0.74000  Biso   1.000  H
  H272     1.0000 0.97270  0.00520  0.73680  Biso   1.000  H
  H273     1.0000 0.05970  0.03860  0.76450  Biso   1.000  H
  C256     1.0000 0.76150  0.23093  0.41400  Biso   1.000  C
  H274     1.0000 0.71970  0.22490  0.44060  Biso   1.000  H
  H275     1.0000 0.73130  0.25530  0.38560  Biso   1.000  H
  C257     1.0000 0.77580  0.18238  0.38427  Biso   1.000  C
  H276     1.0000 0.80380  0.15770  0.41240  Biso   1.000  H
  H277     1.0000 0.71600  0.17010  0.36370  Biso   1.000  H
  H278     1.0000 0.81680  0.18820  0.35770  Biso   1.000  H
  C258     1.0000 0.88000  0.31363  0.36725  Biso   1.000  C
  H279     1.0000 0.83610  0.29250  0.34110  Biso   1.000  H
  H280     1.0000 0.93680  0.31710  0.35170  Biso   1.000  H
  C259     1.0000 0.83750  0.36424  0.37070  Biso   1.000  C
  H281     1.0000 0.88200  0.38590  0.39490  Biso   1.000  H
  H282     1.0000 0.82110  0.37870  0.33280  Biso   1.000  H
  H283     1.0000 0.78170  0.36100  0.38660  Biso   1.000  H
  C260     1.0000 0.51000  0.13929  0.60561  Biso   1.000  C
  C261     1.0000 0.54520  0.11290  0.56130  Biso   1.000  C
  C262     1.0000 0.60380  0.07221  0.56211  Biso   1.000  C
  C263     1.0000 0.61440  0.06403  0.50582  Biso   1.000  C
  C264     1.0000 0.56350  0.10087  0.47237  Biso   1.000  C
  C265     1.0000 0.54970  0.11466  0.41235  Biso   1.000  C
  C266     1.0000 0.58200  0.08618  0.37196  Biso   1.000  C
  H284     1.0000 0.61570  0.05640  0.38240  Biso   1.000  H
  C267     1.0000 0.56390  0.10220  0.31645  Biso   1.000  C
  H285     1.0000 0.58480  0.08330  0.28830  Biso   1.000  H
  C268     1.0000 0.51540  0.14574  0.30211  Biso   1.000  C
  H286     1.0000 0.50130  0.15670  0.26400  Biso   1.000  H
  C269     1.0000 0.48740  0.17349  0.34491  Biso   1.000  C
  C270     1.0000 0.43930  0.22100  0.33450  Biso   1.000  C
  C271     1.0000 0.43970  0.25817  0.29414  Biso   1.000  C
  C272     1.0000 0.38310  0.29731  0.30679  Biso   1.000  C
  C273     1.0000 0.35000  0.28345  0.35474  Biso   1.000  C
  C274     1.0000 0.29310  0.31017  0.38798  Biso   1.000  C
  C275     1.0000 0.64660  0.04166  0.61322  Biso   1.000  C
  H287     1.0000 0.70720  0.02860  0.60830  Biso   1.000  H
  H288     1.0000 0.65730  0.06300  0.64720  Biso   1.000  H
  C276     1.0000 0.58390  0.99856  0.62142  Biso   1.000  C
  H289     1.0000 0.57510  0.97690  0.58820  Biso   1.000  H
  H290     1.0000 0.61250  0.97960  0.65500  Biso   1.000  H
  H291     1.0000 0.52400  0.01140  0.62630  Biso   1.000  H
  C277     1.0000 0.67510  0.02451  0.48817  Biso   1.000  C
  H292     1.0000 0.68520  0.99800  0.51710  Biso   1.000  H
  H293     1.0000 0.64240  0.00960  0.45230  Biso   1.000  H
  C278     1.0000 0.76780  0.04373  0.48030  Biso   1.000  C
  H294     1.0000 0.80250  0.05650  0.51640  Biso   1.000  H
  H295     1.0000 0.80260  0.01670  0.46720  Biso   1.000  H
  H296     1.0000 0.75850  0.07050  0.45230  Biso   1.000  H
  C279     1.0000 0.49890  0.26067  0.25006  Biso   1.000  C
  H297     1.0000 0.50090  0.22740  0.23290  Biso   1.000  H
  H298     1.0000 0.47010  0.28390  0.21990  Biso   1.000  H
  C280     1.0000 0.59670  0.27760  0.27399  Biso   1.000  C
  H299     1.0000 0.62530  0.25500  0.30430  Biso   1.000  H
  H300     1.0000 0.63270  0.27740  0.24410  Biso   1.000  H
  H301     1.0000 0.59550  0.31130  0.28910  Biso   1.000  H
  C281     1.0000 0.36140  0.34468  0.27399  Biso   1.000  C
  H302     1.0000 0.36650  0.37290  0.30070  Biso   1.000  H
  H303     1.0000 0.40760  0.34970  0.25000  Biso   1.000  H
  C282     1.0000 0.26480  0.34459  0.23669  Biso   1.000  C
  H304     1.0000 0.21860  0.34050  0.26030  Biso   1.000  H
  H305     1.0000 0.25420  0.37610  0.21620  Biso   1.000  H
  H306     1.0000 0.25960  0.31710  0.20970  Biso   1.000  H
  C283     1.0000 0.06150  0.41951  0.29964  Biso   1.000  C
  C284     1.0000 0.01420  0.45756  0.25880  Biso   1.000  C
  H307     1.0000 0.05470  0.48650  0.25930  Biso   1.000  H
  H308     1.0000 0.00050  0.44340  0.22070  Biso   1.000  H
  H309     1.0000 0.95650  0.46780  0.26960  Biso   1.000  H
  N28      1.0000 0.57719  0.35463  0.70130  Biso   1.000  N
  N29      1.0000 0.56856  0.44731  0.66221  Biso   1.000  N
  N30      1.0000 0.44556  0.45157  0.56512  Biso   1.000  N
  N31      1.0000 0.12741  0.16403  0.64802  Biso   1.000  N
  N32      1.0000 0.96700  0.18352  0.57314  Biso   1.000  N
  N33      1.0000 0.98288  0.26263  0.50818  Biso   1.000  N
  N34      1.0000 0.52220  0.12935  0.50665  Biso   1.000  N
  N35      1.0000 0.50394  0.15757  0.39901  Biso   1.000  N
  N36      1.0000 0.38475  0.23719  0.37050  Biso   1.000  N
  O46      1.0000 0.47973  0.27451  0.65633  Biso   1.000  O
  O47      1.0000 0.53054  0.22894  0.73447  Biso   1.000  O
  O48      1.0000 0.33881  0.37780  0.51257  Biso   1.000  O
  O49      1.0000 0.24248  0.43199  0.45895  Biso   1.000  O
  O50      1.0000 0.36573  0.14234  0.70829  Biso   1.000  O
  O51      1.0000 0.29696  0.20605  0.65568  Biso   1.000  O
  O52      1.0000 0.13641  0.31579  0.50531  Biso   1.000  O
  O53      1.0000 0.07021  0.35206  0.42313  Biso   1.000  O
  O54      1.0000 0.54235  0.12814  0.65686  Biso   1.000  O
  O55      1.0000 0.45002  0.17200  0.58927  Biso   1.000  O
  O56      1.0000 0.27643  0.28992  0.43153  Biso   1.000  O
  O57      1.0000 0.26391  0.35268  0.36949  Biso   1.000  O
  O58      1.0000 0.33940  0.25737  0.54093  Biso   1.000  O
  O59      1.0000 0.10809  0.43549  0.34582  Biso   1.000  O
  O60      1.0000 0.05637  0.37359  0.28801  Biso   1.000  O
  Zn13     1.0000 0.49630  0.16009  0.71886  Biso   1.000  Zn
  Zn14     1.0000 0.38685  0.23091  0.61352  Biso   1.000  Zn
  Zn15     1.0000 0.27035  0.31568  0.51299  Biso   1.000  Zn
  Zn16     1.0000 0.17152  0.38776  0.40166  Biso   1.000  Zn
  H310     1.0000 0.55800  0.35770  0.66590  Biso   1.000  H
  H311     1.0000 0.46500  0.42360  0.57490  Biso   1.000  H
  H312     1.0000 0.12300  0.19340  0.63790  Biso   1.000  H
  H313     1.0000 0.02700  0.26220  0.53610  Biso   1.000  H
  H314     1.0000 0.48300  0.14970  0.49460  Biso   1.000  H
  H315     1.0000 0.37400  0.22010  0.39800  Biso   1.000  H
  H316     1.0000 0.33900  0.23910  0.51980  Biso   1.000  H
