data_image0
_cell_length_a       43.9623
_cell_length_b       43.9623
_cell_length_c       11.3572
_cell_angle_alpha    90
_cell_angle_beta     90
_cell_angle_gamma    120

_symmetry_space_group_name_H-M    "P 1"
_symmetry_int_tables_number       1

loop_
  _symmetry_equiv_pos_as_xyz
  'x, y, z'

loop_
  _atom_site_label
  _atom_site_occupancy
  _atom_site_fract_x
  _atom_site_fract_y
  _atom_site_fract_z
  _atom_site_thermal_displace_type
  _atom_site_B_iso_or_equiv
  _atom_site_type_symbol
  Zn1      1.0000 0.71962  0.88861  0.85695  Biso   1.000  Zn
  Zn2      1.0000 0.88858  0.16989  0.40969  Biso   1.000  Zn
  O1       1.0000 0.87530  0.12060  0.37780  Biso   1.000  O
  O2       1.0000 0.91320  0.18720  0.26110  Biso   1.000  O
  O3       1.0000 0.72430  0.90980  0.01660  Biso   1.000  O
  O4       1.0000 0.75790  0.87780  0.88170  Biso   1.000  O
  N1       1.0000 0.69400  0.84200  0.76360  Biso   1.000  N
  N2       1.0000 0.67050  0.88500  0.83240  Biso   1.000  N
  N3       1.0000 0.84740  0.15110  0.53300  Biso   1.000  N
  N4       1.0000 0.87400  0.20830  0.40130  Biso   1.000  N
  N5       1.0000 0.81230  0.74450  0.52120  Biso   1.000  N
  C1       1.0000 0.78120  0.74370  0.49240  Biso   1.000  C
  H1       1.0000 0.76640  0.72830  0.43250  Biso   1.000  H
  C2       1.0000 0.77160  0.76540  0.55120  Biso   1.000  C
  H2       1.0000 0.75030  0.76480  0.53150  Biso   1.000  H
  C3       1.0000 0.79320  0.78790  0.63880  Biso   1.000  C
  C4       1.0000 0.82430  0.78870  0.66760  Biso   1.000  C
  H3       1.0000 0.83910  0.80420  0.72750  Biso   1.000  H
  C5       1.0000 0.83390  0.76710  0.60890  Biso   1.000  C
  H4       1.0000 0.85520  0.76760  0.62860  Biso   1.000  H
  C6       1.0000 0.82700  0.89080  0.91840  Biso   1.000  C
  C7       1.0000 0.78380  0.81260  0.70400  Biso   1.000  C
  C8       1.0000 0.75043  0.80840  0.69200  Biso   1.000  C
  H5       1.0000 0.73360  0.79030  0.64270  Biso   1.000  H
  C9       1.0000 0.74172  0.83050  0.75200  Biso   1.000  C
  C10      1.0000 0.76640  0.85690  0.82410  Biso   1.000  C
  C11      1.0000 0.79970  0.86110  0.83610  Biso   1.000  C
  C12      1.0000 0.80845  0.83890  0.77610  Biso   1.000  C
  H6       1.0000 0.83120  0.84180  0.78430  Biso   1.000  H
  C13      1.0000 0.81320  0.88690  0.04360  Biso   1.000  C
  H7       1.0000 0.80850  0.86430  0.07580  Biso   1.000  H
  H8       1.0000 0.83090  0.90600  0.09240  Biso   1.000  H
  H9       1.0000 0.79150  0.88800  0.04320  Biso   1.000  H
  C14      1.0000 0.83470  0.92570  0.86510  Biso   1.000  C
  H10      1.0000 0.84360  0.92750  0.78470  Biso   1.000  H
  H11      1.0000 0.81320  0.92700  0.86360  Biso   1.000  H
  H12      1.0000 0.85250  0.94500  0.91280  Biso   1.000  H
  C15      1.0000 0.86180  0.89070  0.92300  Biso   1.000  C
  H13      1.0000 0.87120  0.89320  0.84310  Biso   1.000  H
  H14      1.0000 0.87860  0.91040  0.97170  Biso   1.000  H
  H15      1.0000 0.85780  0.86850  0.95720  Biso   1.000  H
  C16      1.0000 0.70640  0.82310  0.72710  Biso   1.000  C
  H16      1.0000 0.69170  0.80300  0.68100  Biso   1.000  H
  C17      1.0000 0.65500  0.83020  0.73780  Biso   1.000  C
  H17      1.0000 0.64020  0.81540  0.80460  Biso   1.000  H
  C18      1.0000 0.64050  0.80930  0.61910  Biso   1.000  C
  H18      1.0000 0.65690  0.82240  0.55420  Biso   1.000  H
  H19      1.0000 0.63890  0.78610  0.62580  Biso   1.000  H
  C19      1.0000 0.60460  0.80420  0.59090  Biso   1.000  C
  H20      1.0000 0.59770  0.79370  0.51150  Biso   1.000  H
  H21      1.0000 0.58750  0.78720  0.64780  Biso   1.000  H
  C20      1.0000 0.60200  0.83580  0.59370  Biso   1.000  C
  H22      1.0000 0.57720  0.82950  0.58190  Biso   1.000  H
  H23      1.0000 0.61600  0.85150  0.52860  Biso   1.000  H
  C21      1.0000 0.61520  0.85530  0.71140  Biso   1.000  C
  H24      1.0000 0.61400  0.87710  0.71020  Biso   1.000  H
  H25      1.0000 0.60020  0.84030  0.77650  Biso   1.000  H
  C22      1.0000 0.65240  0.86390  0.73070  Biso   1.000  C
  H26      1.0000 0.66610  0.87720  0.65980  Biso   1.000  H
  C23      1.0000 0.65270  0.88610  0.93520  Biso   1.000  C
  H27      1.0000 0.64250  0.86280  0.97320  Biso   1.000  H
  H28      1.0000 0.63280  0.88900  0.90900  Biso   1.000  H
  C24      1.0000 0.67082  0.91168  0.02400  Biso   1.000  C
  C25      1.0000 0.70572  0.92439  0.05490  Biso   1.000  C
  C26      1.0000 0.72235  0.95260  0.13190  Biso   1.000  C
  C27      1.0000 0.70410  0.96813  0.17800  Biso   1.000  C
  H29      1.0000 0.71550  0.98740  0.23070  Biso   1.000  H
  C28      1.0000 0.66920  0.95540  0.14720  Biso   1.000  C
  C29      1.0000 0.65255  0.92720  0.07010  Biso   1.000  C
  H30      1.0000 0.62870  0.91850  0.04900  Biso   1.000  H
  C30      1.0000 0.76170  0.96890  0.16900  Biso   1.000  C
  C31      1.0000 0.76840  0.94200  0.22930  Biso   1.000  C
  H31      1.0000 0.75360  0.93310  0.29980  Biso   1.000  H
  H32      1.0000 0.76260  0.92250  0.17510  Biso   1.000  H
  H33      1.0000 0.79320  0.95300  0.25180  Biso   1.000  H
  C32      1.0000 0.78590  0.98150  0.05880  Biso   1.000  C
  H34      1.0000 0.78270  0.99910  0.01630  Biso   1.000  H
  H35      1.0000 0.81050  0.99200  0.08370  Biso   1.000  H
  H36      1.0000 0.77990  0.96150  0.00700  Biso   1.000  H
  C33      1.0000 0.77570  0.00150  0.25220  Biso   1.000  C
  H37      1.0000 0.77180  0.01940  0.21570  Biso   1.000  H
  H38      1.0000 0.76330  0.99430  0.32770  Biso   1.000  H
  H39      1.0000 0.80090  0.01110  0.26560  Biso   1.000  H
  C34      1.0000 0.64980  0.97480  0.18720  Biso   1.000  C
  C35      1.0000 0.61330  0.95690  0.18990  Biso   1.000  C
  H40      1.0000 0.60050  0.93260  0.17090  Biso   1.000  H
  C36      1.0000 0.59560  0.97450  0.22050  Biso   1.000  C
  H41      1.0000 0.57060  0.96220  0.22230  Biso   1.000  H
  N6       1.0000 0.61430  0.01000  0.24820  Biso   1.000  N
  C37      1.0000 0.65080  0.02800  0.24550  Biso   1.000  C
  H42      1.0000 0.66360  0.05220  0.26450  Biso   1.000  H
  C38      1.0000 0.66860  0.01040  0.21490  Biso   1.000  C
  H43      1.0000 0.69350  0.02260  0.21310  Biso   1.000  H
  C39      1.0000 0.88260  0.07450  0.20760  Biso   1.000  C
  H44      1.0000 0.88310  0.09700  0.21070  Biso   1.000  H
  H45      1.0000 0.90100  0.07640  0.15390  Biso   1.000  H
  H46      1.0000 0.85960  0.05620  0.17910  Biso   1.000  H
  N7       1.0000 0.74840  0.93257  0.74860  Biso   1.000  N
  C40      1.0000 0.74920  0.96350  0.78050  Biso   1.000  C
  H47      1.0000 0.73520  0.96350  0.84400  Biso   1.000  H
  C41      1.0000 0.77060  0.99440  0.71940  Biso   1.000  C
  H48      1.0000 0.77120  0.01550  0.74120  Biso   1.000  H
  C42      1.0000 0.79120  0.99434  0.62640  Biso   1.000  C
  C43      1.0000 0.79030  0.96340  0.59450  Biso   1.000  C
  H49      1.0000 0.80430  0.96340  0.53100  Biso   1.000  H
  C44      1.0000 0.76890  0.93251  0.65560  Biso   1.000  C
  H50      1.0000 0.76830  0.91140  0.63380  Biso   1.000  H
  C45      1.0000 0.88920  0.06480  0.33200  Biso   1.000  C
  C46      1.0000 0.81540  0.02956  0.55960  Biso   1.000  C
  C47      1.0000 0.81110  0.05830  0.58190  Biso   1.000  C
  H51      1.0000 0.79410  0.05640  0.63740  Biso   1.000  H
  C48      1.0000 0.83170  0.08976  0.52280  Biso   1.000  C
  C49      1.0000 0.85660  0.09252  0.44150  Biso   1.000  C
  C50      1.0000 0.86090  0.06380  0.41930  Biso   1.000  C
  C51      1.0000 0.84030  0.03232  0.47830  Biso   1.000  C
  H52      1.0000 0.84320  0.01270  0.46310  Biso   1.000  H
  C52      1.0000 0.88830  0.03010  0.32400  Biso   1.000  C
  H53      1.0000 0.86480  0.01180  0.29850  Biso   1.000  H
  H54      1.0000 0.90570  0.03200  0.26600  Biso   1.000  H
  H55      1.0000 0.89360  0.02400  0.40070  Biso   1.000  H
  C53      1.0000 0.92650  0.09260  0.37160  Biso   1.000  C
  H56      1.0000 0.92790  0.11550  0.37800  Biso   1.000  H
  H57      1.0000 0.93150  0.08590  0.44840  Biso   1.000  H
  H58      1.0000 0.94360  0.09400  0.31370  Biso   1.000  H
  C54      1.0000 0.82920  0.11990  0.56230  Biso   1.000  C
  H59      1.0000 0.81130  0.11500  0.61810  Biso   1.000  H
  C55      1.0000 0.84390  0.17970  0.58450  Biso   1.000  C
  H60      1.0000 0.86530  0.19400  0.63390  Biso   1.000  H
  C56      1.0000 0.81210  0.16960  0.66210  Biso   1.000  C
  H61      1.0000 0.81060  0.15320  0.72460  Biso   1.000  H
  H62      1.0000 0.79030  0.15790  0.61460  Biso   1.000  H
  C57      1.0000 0.81660  0.20350  0.71680  Biso   1.000  C
  H63      1.0000 0.83840  0.21500  0.76430  Biso   1.000  H
  H64      1.0000 0.79650  0.19790  0.76940  Biso   1.000  H
  C58      1.0000 0.81850  0.22870  0.61680  Biso   1.000  C
  H65      1.0000 0.79590  0.21780  0.57360  Biso   1.000  H
  H66      1.0000 0.82210  0.25090  0.65210  Biso   1.000  H
  C59      1.0000 0.84790  0.23680  0.53170  Biso   1.000  C
  H67      1.0000 0.87070  0.25080  0.57250  Biso   1.000  H
  H68      1.0000 0.84700  0.25120  0.46610  Biso   1.000  H
  C60      1.0000 0.84560  0.20290  0.48100  Biso   1.000  C
  H69      1.0000 0.82300  0.18990  0.43660  Biso   1.000  H
  C61      1.0000 0.88500  0.23150  0.32620  Biso   1.000  C
  H70      1.0000 0.87360  0.24490  0.32160  Biso   1.000  H
  C62      1.0000 0.91363  0.24090  0.24300  Biso   1.000  C
  C63      1.0000 0.92850  0.22033  0.21510  Biso   1.000  C
  C64      1.0000 0.95800  0.23370  0.14310  Biso   1.000  C
  C65      1.0000 0.97260  0.26770  0.09910  Biso   1.000  C
  H71      1.0000 0.99280  0.27690  0.04980  Biso   1.000  H
  C66      1.0000 0.95770  0.28823  0.12700  Biso   1.000  C
  C67      1.0000 0.92830  0.27480  0.19890  Biso   1.000  C
  H72      1.0000 0.91810  0.28890  0.21800  Biso   1.000  H
  C68      1.0000 0.97570  0.21130  0.11360  Biso   1.000  C
  C69      1.0000 0.98840  0.20240  0.22520  Biso   1.000  C
  H73      1.0000 0.96870  0.18990  0.27950  Biso   1.000  H
  H74      1.0000 0.99850  0.18760  0.20600  Biso   1.000  H
  H75      1.0000 0.00640  0.22420  0.26250  Biso   1.000  H
  C70      1.0000 0.94900  0.17800  0.04590  Biso   1.000  C
  H76      1.0000 0.94150  0.18490  0.97450  Biso   1.000  H
  H77      1.0000 0.96010  0.16420  0.02420  Biso   1.000  H
  H78      1.0000 0.92860  0.16380  0.09600  Biso   1.000  H
  C71      1.0000 0.00550  0.23100  0.02540  Biso   1.000  C
  H79      1.0000 0.99620  0.23620  0.95450  Biso   1.000  H
  H80      1.0000 0.02360  0.25300  0.06090  Biso   1.000  H
  H81      1.0000 0.01570  0.21640  0.00430  Biso   1.000  H
  C72      1.0000 0.97550  0.32722  0.09240  Biso   1.000  C
  C73      1.0000 0.95730  0.34540  0.09930  Biso   1.000  C
  H82      1.0000 0.93340  0.33360  0.12350  Biso   1.000  H
  C74      1.0000 0.97400  0.38090  0.07100  Biso   1.000  C
  H83      1.0000 0.96150  0.39340  0.07570  Biso   1.000  H
  N8       1.0000 0.00890  0.39821  0.03560  Biso   1.000  N
  C75      1.0000 0.02720  0.38000  0.02860  Biso   1.000  C
  H84      1.0000 0.05110  0.39180  0.00440  Biso   1.000  H
  C76      1.0000 0.01050  0.34450  0.05700  Biso   1.000  C
  H85      1.0000 0.02300  0.33210  0.05220  Biso   1.000  H
  Zn3      1.0000 0.11139  0.83101  0.85695  Biso   1.000  Zn
  Zn4      1.0000 0.83011  0.71869  0.40969  Biso   1.000  Zn
  O5       1.0000 0.87940  0.75470  0.37780  Biso   1.000  O
  O6       1.0000 0.81280  0.72600  0.26110  Biso   1.000  O
  O7       1.0000 0.09020  0.81450  0.01660  Biso   1.000  O
  O8       1.0000 0.12220  0.88010  0.88170  Biso   1.000  O
  N9       1.0000 0.15800  0.85200  0.76360  Biso   1.000  N
  N10      1.0000 0.11500  0.78550  0.83240  Biso   1.000  N
  N11      1.0000 0.84890  0.69630  0.53300  Biso   1.000  N
  N12      1.0000 0.79170  0.66570  0.40130  Biso   1.000  N
  N13      1.0000 0.25550  0.06780  0.52120  Biso   1.000  N
  C77      1.0000 0.25630  0.03750  0.49240  Biso   1.000  C
  H86      1.0000 0.27170  0.03810  0.43250  Biso   1.000  H
  C78      1.0000 0.23460  0.00620  0.55120  Biso   1.000  C
  H87      1.0000 0.23520  0.98550  0.53150  Biso   1.000  H
  C79      1.0000 0.21210  0.00530  0.63880  Biso   1.000  C
  C80      1.0000 0.21130  0.03560  0.66760  Biso   1.000  C
  H88      1.0000 0.19580  0.03490  0.72750  Biso   1.000  H
  C81      1.0000 0.23290  0.06680  0.60890  Biso   1.000  C
  H89      1.0000 0.23240  0.08760  0.62860  Biso   1.000  H
  C82      1.0000 0.10920  0.93620  0.91840  Biso   1.000  C
  C83      1.0000 0.18740  0.97120  0.70400  Biso   1.000  C
  C84      1.0000 0.19160  0.94203  0.69200  Biso   1.000  C
  H90      1.0000 0.20970  0.94330  0.64270  Biso   1.000  H
  C85      1.0000 0.16950  0.91122  0.75200  Biso   1.000  C
  C86      1.0000 0.14310  0.90950  0.82410  Biso   1.000  C
  C87      1.0000 0.13890  0.93860  0.83610  Biso   1.000  C
  C88      1.0000 0.16110  0.96955  0.77610  Biso   1.000  C
  H91      1.0000 0.15820  0.98940  0.78430  Biso   1.000  H
  C89      1.0000 0.11310  0.92630  0.04360  Biso   1.000  C
  H92      1.0000 0.13570  0.94420  0.07580  Biso   1.000  H
  H93      1.0000 0.09400  0.92490  0.09240  Biso   1.000  H
  H94      1.0000 0.11200  0.90350  0.04320  Biso   1.000  H
  C90      1.0000 0.07430  0.90900  0.86510  Biso   1.000  C
  H95      1.0000 0.07250  0.91610  0.78470  Biso   1.000  H
  H96      1.0000 0.07300  0.88620  0.86360  Biso   1.000  H
  H97      1.0000 0.05500  0.90750  0.91280  Biso   1.000  H
  C91      1.0000 0.10930  0.97110  0.92300  Biso   1.000  C
  H98      1.0000 0.10680  0.97800  0.84310  Biso   1.000  H
  H99      1.0000 0.08960  0.96820  0.97170  Biso   1.000  H
  H100     1.0000 0.13150  0.98930  0.95720  Biso   1.000  H
  C92      1.0000 0.17690  0.88330  0.72710  Biso   1.000  C
  H101     1.0000 0.19700  0.88870  0.68100  Biso   1.000  H
  C93      1.0000 0.16980  0.82480  0.73780  Biso   1.000  C
  H102     1.0000 0.18460  0.82480  0.80460  Biso   1.000  H
  C94      1.0000 0.19070  0.83120  0.61910  Biso   1.000  C
  H103     1.0000 0.17760  0.83450  0.55420  Biso   1.000  H
  H104     1.0000 0.21390  0.85280  0.62580  Biso   1.000  H
  C95      1.0000 0.19580  0.80040  0.59090  Biso   1.000  C
  H105     1.0000 0.20630  0.80400  0.51150  Biso   1.000  H
  H106     1.0000 0.21280  0.80030  0.64780  Biso   1.000  H
  C96      1.0000 0.16420  0.76620  0.59370  Biso   1.000  C
  H107     1.0000 0.17050  0.74770  0.58190  Biso   1.000  H
  H108     1.0000 0.14850  0.76450  0.52860  Biso   1.000  H
  C97      1.0000 0.14470  0.75990  0.71140  Biso   1.000  C
  H109     1.0000 0.12290  0.73690  0.71020  Biso   1.000  H
  H110     1.0000 0.15970  0.75990  0.77650  Biso   1.000  H
  C98      1.0000 0.13610  0.78850  0.73070  Biso   1.000  C
  H111     1.0000 0.12280  0.78890  0.65980  Biso   1.000  H
  C99      1.0000 0.11390  0.76660  0.93520  Biso   1.000  C
  H112     1.0000 0.13720  0.77970  0.97320  Biso   1.000  H
  H113     1.0000 0.11100  0.74380  0.90900  Biso   1.000  H
  C100     1.0000 0.08832  0.75914  0.02400  Biso   1.000  C
  C101     1.0000 0.07561  0.78133  0.05490  Biso   1.000  C
  C102     1.0000 0.04740  0.76975  0.13190  Biso   1.000  C
  C103     1.0000 0.03187  0.73597  0.17800  Biso   1.000  C
  H114     1.0000 0.01260  0.72810  0.23070  Biso   1.000  H
  C104     1.0000 0.04460  0.71380  0.14720  Biso   1.000  C
  C105     1.0000 0.07280  0.72535  0.07010  Biso   1.000  C
  H115     1.0000 0.08150  0.71020  0.04900  Biso   1.000  H
  C106     1.0000 0.03110  0.79280  0.16900  Biso   1.000  C
  C107     1.0000 0.05800  0.82640  0.22930  Biso   1.000  C
  H116     1.0000 0.06690  0.82050  0.29980  Biso   1.000  H
  H117     1.0000 0.07750  0.84010  0.17510  Biso   1.000  H
  H118     1.0000 0.04700  0.84020  0.25180  Biso   1.000  H
  C108     1.0000 0.01850  0.80440  0.05880  Biso   1.000  C
  H119     1.0000 0.00090  0.78360  0.01630  Biso   1.000  H
  H120     1.0000 0.00800  0.81850  0.08370  Biso   1.000  H
  H121     1.0000 0.03850  0.81840  0.00700  Biso   1.000  H
  C109     1.0000 0.99850  0.77420  0.25220  Biso   1.000  C
  H122     1.0000 0.98060  0.75240  0.21570  Biso   1.000  H
  H123     1.0000 0.00570  0.76900  0.32770  Biso   1.000  H
  H124     1.0000 0.98890  0.78980  0.26560  Biso   1.000  H
  C110     1.0000 0.02520  0.67500  0.18720  Biso   1.000  C
  C111     1.0000 0.04310  0.65640  0.18990  Biso   1.000  C
  H125     1.0000 0.06740  0.66790  0.17090  Biso   1.000  H
  C112     1.0000 0.02550  0.62110  0.22050  Biso   1.000  C
  H126     1.0000 0.03780  0.60840  0.22230  Biso   1.000  H
  N14      1.0000 0.99000  0.60430  0.24820  Biso   1.000  N
  C113     1.0000 0.97200  0.62280  0.24550  Biso   1.000  C
  H127     1.0000 0.94780  0.61140  0.26450  Biso   1.000  H
  C114     1.0000 0.98960  0.65820  0.21490  Biso   1.000  C
  H128     1.0000 0.97740  0.67090  0.21310  Biso   1.000  H
  C115     1.0000 0.92550  0.80810  0.20760  Biso   1.000  C
  H129     1.0000 0.90300  0.78610  0.21070  Biso   1.000  H
  H130     1.0000 0.92360  0.82460  0.15390  Biso   1.000  H
  H131     1.0000 0.94380  0.80340  0.17910  Biso   1.000  H
  N15      1.0000 0.06743  0.81583  0.74860  Biso   1.000  N
  C116     1.0000 0.03650  0.78570  0.78050  Biso   1.000  C
  H132     1.0000 0.03650  0.77170  0.84400  Biso   1.000  H
  C117     1.0000 0.00560  0.77620  0.71940  Biso   1.000  C
  H133     1.0000 0.98450  0.75570  0.74120  Biso   1.000  H
  C118     1.0000 0.00566  0.79686  0.62640  Biso   1.000  C
  C119     1.0000 0.03660  0.82690  0.59450  Biso   1.000  C
  H134     1.0000 0.03660  0.84090  0.53100  Biso   1.000  H
  C120     1.0000 0.06749  0.83639  0.65560  Biso   1.000  C
  H135     1.0000 0.08860  0.85690  0.63380  Biso   1.000  H
  C121     1.0000 0.93520  0.82440  0.33200  Biso   1.000  C
  C122     1.0000 0.97044  0.78584  0.55960  Biso   1.000  C
  C123     1.0000 0.94170  0.75280  0.58190  Biso   1.000  C
  H136     1.0000 0.94360  0.73770  0.63740  Biso   1.000  H
  C124     1.0000 0.91024  0.74194  0.52280  Biso   1.000  C
  C125     1.0000 0.90748  0.76408  0.44150  Biso   1.000  C
  C126     1.0000 0.93620  0.79710  0.41930  Biso   1.000  C
  C127     1.0000 0.96768  0.80798  0.47830  Biso   1.000  C
  H137     1.0000 0.98730  0.83050  0.46310  Biso   1.000  H
  C128     1.0000 0.96990  0.85820  0.32400  Biso   1.000  C
  H138     1.0000 0.98820  0.85300  0.29850  Biso   1.000  H
  H139     1.0000 0.96800  0.87370  0.26600  Biso   1.000  H
  H140     1.0000 0.97600  0.86960  0.40070  Biso   1.000  H
  C129     1.0000 0.90740  0.83390  0.37160  Biso   1.000  C
  H141     1.0000 0.88450  0.81240  0.37800  Biso   1.000  H
  H142     1.0000 0.91410  0.84560  0.44840  Biso   1.000  H
  H143     1.0000 0.90600  0.84960  0.31370  Biso   1.000  H
  C130     1.0000 0.88010  0.70930  0.56230  Biso   1.000  C
  H144     1.0000 0.88500  0.69630  0.61810  Biso   1.000  H
  C131     1.0000 0.82030  0.66420  0.58450  Biso   1.000  C
  H145     1.0000 0.80600  0.67130  0.63390  Biso   1.000  H
  C132     1.0000 0.83040  0.64250  0.66210  Biso   1.000  C
  H146     1.0000 0.84680  0.65740  0.72460  Biso   1.000  H
  H147     1.0000 0.84210  0.63240  0.61460  Biso   1.000  H
  C133     1.0000 0.79650  0.61310  0.71680  Biso   1.000  C
  H148     1.0000 0.78500  0.62340  0.76430  Biso   1.000  H
  H149     1.0000 0.80210  0.59860  0.76940  Biso   1.000  H
  C134     1.0000 0.77130  0.58980  0.61680  Biso   1.000  C
  H150     1.0000 0.78220  0.57810  0.57360  Biso   1.000  H
  H151     1.0000 0.74910  0.57120  0.65210  Biso   1.000  H
  C135     1.0000 0.76320  0.61110  0.53170  Biso   1.000  C
  H152     1.0000 0.74920  0.61990  0.57250  Biso   1.000  H
  H153     1.0000 0.74880  0.59580  0.46610  Biso   1.000  H
  C136     1.0000 0.79710  0.64270  0.48100  Biso   1.000  C
  H154     1.0000 0.81010  0.63310  0.43660  Biso   1.000  H
  C137     1.0000 0.76850  0.65350  0.32620  Biso   1.000  C
  H155     1.0000 0.75510  0.62870  0.32160  Biso   1.000  H
  C138     1.0000 0.75910  0.67273  0.24300  Biso   1.000  C
  C139     1.0000 0.77967  0.70817  0.21510  Biso   1.000  C
  C140     1.0000 0.76630  0.72430  0.14310  Biso   1.000  C
  C141     1.0000 0.73230  0.70490  0.09910  Biso   1.000  C
  H156     1.0000 0.72310  0.71590  0.04980  Biso   1.000  H
  C142     1.0000 0.71177  0.66947  0.12700  Biso   1.000  C
  C143     1.0000 0.72520  0.65350  0.19890  Biso   1.000  C
  H157     1.0000 0.71110  0.62920  0.21800  Biso   1.000  H
  C144     1.0000 0.78870  0.76440  0.11360  Biso   1.000  C
  C145     1.0000 0.79760  0.78600  0.22520  Biso   1.000  C
  H158     1.0000 0.81010  0.77880  0.27950  Biso   1.000  H
  H159     1.0000 0.81240  0.81090  0.20600  Biso   1.000  H
  H160     1.0000 0.77580  0.78220  0.26250  Biso   1.000  H
  C146     1.0000 0.82200  0.77100  0.04590  Biso   1.000  C
  H161     1.0000 0.81510  0.75660  0.97450  Biso   1.000  H
  H162     1.0000 0.83580  0.79590  0.02420  Biso   1.000  H
  H163     1.0000 0.83620  0.76480  0.09600  Biso   1.000  H
  C147     1.0000 0.76900  0.77450  0.02540  Biso   1.000  C
  H164     1.0000 0.76380  0.76000  0.95450  Biso   1.000  H
  H165     1.0000 0.74700  0.77060  0.06090  Biso   1.000  H
  H166     1.0000 0.78360  0.79930  0.00430  Biso   1.000  H
  C148     1.0000 0.67278  0.64828  0.09240  Biso   1.000  C
  C149     1.0000 0.65460  0.61190  0.09930  Biso   1.000  C
  H167     1.0000 0.66640  0.59980  0.12350  Biso   1.000  H
  C150     1.0000 0.61910  0.59310  0.07100  Biso   1.000  C
  H168     1.0000 0.60660  0.56810  0.07570  Biso   1.000  H
  N16      1.0000 0.60179  0.61069  0.03560  Biso   1.000  N
  C151     1.0000 0.62000  0.64720  0.02860  Biso   1.000  C
  H169     1.0000 0.60820  0.65930  0.00440  Biso   1.000  H
  C152     1.0000 0.65550  0.66600  0.05700  Biso   1.000  C
  H170     1.0000 0.66790  0.69090  0.05220  Biso   1.000  H
  Zn5      1.0000 0.16899  0.28038  0.85695  Biso   1.000  Zn
  Zn6      1.0000 0.28131  0.11142  0.40969  Biso   1.000  Zn
  O9       1.0000 0.24530  0.12470  0.37780  Biso   1.000  O
  O10      1.0000 0.27400  0.08680  0.26110  Biso   1.000  O
  O11      1.0000 0.18550  0.27570  0.01660  Biso   1.000  O
  O12      1.0000 0.11990  0.24210  0.88170  Biso   1.000  O
  N17      1.0000 0.14800  0.30600  0.76360  Biso   1.000  N
  N18      1.0000 0.21450  0.32950  0.83240  Biso   1.000  N
  N19      1.0000 0.30370  0.15260  0.53300  Biso   1.000  N
  N20      1.0000 0.33430  0.12600  0.40130  Biso   1.000  N
  N21      1.0000 0.93220  0.18770  0.52120  Biso   1.000  N
  C153     1.0000 0.96250  0.21880  0.49240  Biso   1.000  C
  H171     1.0000 0.96190  0.23360  0.43250  Biso   1.000  H
  C154     1.0000 0.99380  0.22840  0.55120  Biso   1.000  C
  H172     1.0000 0.01450  0.24970  0.53150  Biso   1.000  H
  C155     1.0000 0.99470  0.20680  0.63880  Biso   1.000  C
  C156     1.0000 0.96440  0.17570  0.66760  Biso   1.000  C
  H173     1.0000 0.96510  0.16090  0.72750  Biso   1.000  H
  C157     1.0000 0.93320  0.16610  0.60890  Biso   1.000  C
  H174     1.0000 0.91240  0.14480  0.62860  Biso   1.000  H
  C158     1.0000 0.06380  0.17300  0.91840  Biso   1.000  C
  C159     1.0000 0.02880  0.21620  0.70400  Biso   1.000  C
  C160     1.0000 0.05797  0.24957  0.69200  Biso   1.000  C
  H175     1.0000 0.05670  0.26640  0.64270  Biso   1.000  H
  C161     1.0000 0.08878  0.25828  0.75200  Biso   1.000  C
  C162     1.0000 0.09050  0.23360  0.82410  Biso   1.000  C
  C163     1.0000 0.06140  0.20030  0.83610  Biso   1.000  C
  C164     1.0000 0.03045  0.19155  0.77610  Biso   1.000  C
  H176     1.0000 0.01060  0.16880  0.78430  Biso   1.000  H
  C165     1.0000 0.07370  0.18680  0.04360  Biso   1.000  C
  H177     1.0000 0.05580  0.19150  0.07580  Biso   1.000  H
  H178     1.0000 0.07510  0.16910  0.09240  Biso   1.000  H
  H179     1.0000 0.09650  0.20850  0.04320  Biso   1.000  H
  C166     1.0000 0.09100  0.16530  0.86510  Biso   1.000  C
  H180     1.0000 0.08390  0.15640  0.78470  Biso   1.000  H
  H181     1.0000 0.11380  0.18680  0.86360  Biso   1.000  H
  H182     1.0000 0.09250  0.14750  0.91280  Biso   1.000  H
  C167     1.0000 0.02890  0.13820  0.92300  Biso   1.000  C
  H183     1.0000 0.02200  0.12880  0.84310  Biso   1.000  H
  H184     1.0000 0.03180  0.12140  0.97170  Biso   1.000  H
  H185     1.0000 0.01070  0.14220  0.95720  Biso   1.000  H
  C168     1.0000 0.11670  0.29360  0.72710  Biso   1.000  C
  H186     1.0000 0.11130  0.30830  0.68100  Biso   1.000  H
  C169     1.0000 0.17520  0.34500  0.73780  Biso   1.000  C
  H187     1.0000 0.17520  0.35980  0.80460  Biso   1.000  H
  C170     1.0000 0.16880  0.35950  0.61910  Biso   1.000  C
  H188     1.0000 0.16550  0.34310  0.55420  Biso   1.000  H
  H189     1.0000 0.14720  0.36110  0.62580  Biso   1.000  H
  C171     1.0000 0.19960  0.39540  0.59090  Biso   1.000  C
  H190     1.0000 0.19600  0.40230  0.51150  Biso   1.000  H
  H191     1.0000 0.19970  0.41250  0.64780  Biso   1.000  H
  C172     1.0000 0.23380  0.39800  0.59370  Biso   1.000  C
  H192     1.0000 0.25230  0.42280  0.58190  Biso   1.000  H
  H193     1.0000 0.23550  0.38400  0.52860  Biso   1.000  H
  C173     1.0000 0.24010  0.38480  0.71140  Biso   1.000  C
  H194     1.0000 0.26310  0.38600  0.71020  Biso   1.000  H
  H195     1.0000 0.24010  0.39980  0.77650  Biso   1.000  H
  C174     1.0000 0.21150  0.34760  0.73070  Biso   1.000  C
  H196     1.0000 0.21110  0.33390  0.65980  Biso   1.000  H
  C175     1.0000 0.23340  0.34730  0.93520  Biso   1.000  C
  H197     1.0000 0.22030  0.35750  0.97320  Biso   1.000  H
  H198     1.0000 0.25620  0.36720  0.90900  Biso   1.000  H
  C176     1.0000 0.24086  0.32918  0.02400  Biso   1.000  C
  C177     1.0000 0.21867  0.29428  0.05490  Biso   1.000  C
  C178     1.0000 0.23025  0.27765  0.13190  Biso   1.000  C
  C179     1.0000 0.26403  0.29590  0.17800  Biso   1.000  C
  H199     1.0000 0.27190  0.28450  0.23070  Biso   1.000  H
  C180     1.0000 0.28620  0.33080  0.14720  Biso   1.000  C
  C181     1.0000 0.27465  0.34745  0.07010  Biso   1.000  C
  H200     1.0000 0.28980  0.37130  0.04900  Biso   1.000  H
  C182     1.0000 0.20720  0.23830  0.16900  Biso   1.000  C
  C183     1.0000 0.17360  0.23160  0.22930  Biso   1.000  C
  H201     1.0000 0.17950  0.24640  0.29980  Biso   1.000  H
  H202     1.0000 0.15990  0.23740  0.17510  Biso   1.000  H
  H203     1.0000 0.15980  0.20680  0.25180  Biso   1.000  H
  C184     1.0000 0.19560  0.21410  0.05880  Biso   1.000  C
  H204     1.0000 0.21640  0.21730  0.01630  Biso   1.000  H
  H205     1.0000 0.18150  0.18950  0.08370  Biso   1.000  H
  H206     1.0000 0.18160  0.22010  0.00700  Biso   1.000  H
  C185     1.0000 0.22580  0.22430  0.25220  Biso   1.000  C
  H207     1.0000 0.24760  0.22820  0.21570  Biso   1.000  H
  H208     1.0000 0.23100  0.23670  0.32770  Biso   1.000  H
  H209     1.0000 0.21020  0.19910  0.26560  Biso   1.000  H
  C186     1.0000 0.32500  0.35020  0.18720  Biso   1.000  C
  C187     1.0000 0.34360  0.38670  0.18990  Biso   1.000  C
  H210     1.0000 0.33210  0.39950  0.17090  Biso   1.000  H
  C188     1.0000 0.37890  0.40440  0.22050  Biso   1.000  C
  H211     1.0000 0.39160  0.42940  0.22230  Biso   1.000  H
  N22      1.0000 0.39570  0.38570  0.24820  Biso   1.000  N
  C189     1.0000 0.37720  0.34920  0.24550  Biso   1.000  C
  H212     1.0000 0.38860  0.33640  0.26450  Biso   1.000  H
  C190     1.0000 0.34180  0.33140  0.21490  Biso   1.000  C
  H213     1.0000 0.32910  0.30650  0.21310  Biso   1.000  H
  C191     1.0000 0.19190  0.11740  0.20760  Biso   1.000  C
  H214     1.0000 0.21390  0.11690  0.21070  Biso   1.000  H
  H215     1.0000 0.17540  0.09900  0.15390  Biso   1.000  H
  H216     1.0000 0.19660  0.14040  0.17910  Biso   1.000  H
  N23      1.0000 0.18417  0.25160  0.74860  Biso   1.000  N
  C192     1.0000 0.21430  0.25080  0.78050  Biso   1.000  C
  H217     1.0000 0.22830  0.26480  0.84400  Biso   1.000  H
  C193     1.0000 0.22380  0.22940  0.71940  Biso   1.000  C
  H218     1.0000 0.24430  0.22880  0.74120  Biso   1.000  H
  C194     1.0000 0.20314  0.20880  0.62640  Biso   1.000  C
  C195     1.0000 0.17310  0.20970  0.59450  Biso   1.000  C
  H219     1.0000 0.15910  0.19570  0.53100  Biso   1.000  H
  C196     1.0000 0.16361  0.23110  0.65560  Biso   1.000  C
  H220     1.0000 0.14310  0.23170  0.63380  Biso   1.000  H
  C197     1.0000 0.17560  0.11080  0.33200  Biso   1.000  C
  C198     1.0000 0.21416  0.18460  0.55960  Biso   1.000  C
  C199     1.0000 0.24720  0.18890  0.58190  Biso   1.000  C
  H221     1.0000 0.26230  0.20590  0.63740  Biso   1.000  H
  C200     1.0000 0.25806  0.16830  0.52280  Biso   1.000  C
  C201     1.0000 0.23592  0.14340  0.44150  Biso   1.000  C
  C202     1.0000 0.20290  0.13910  0.41930  Biso   1.000  C
  C203     1.0000 0.19202  0.15970  0.47830  Biso   1.000  C
  H222     1.0000 0.16950  0.15680  0.46310  Biso   1.000  H
  C204     1.0000 0.14180  0.11170  0.32400  Biso   1.000  C
  H223     1.0000 0.14700  0.13520  0.29850  Biso   1.000  H
  H224     1.0000 0.12630  0.09430  0.26600  Biso   1.000  H
  H225     1.0000 0.13040  0.10640  0.40070  Biso   1.000  H
  C205     1.0000 0.16610  0.07350  0.37160  Biso   1.000  C
  H226     1.0000 0.18760  0.07210  0.37800  Biso   1.000  H
  H227     1.0000 0.15440  0.06850  0.44840  Biso   1.000  H
  H228     1.0000 0.15040  0.05640  0.31370  Biso   1.000  H
  C206     1.0000 0.29070  0.17080  0.56230  Biso   1.000  C
  H229     1.0000 0.30370  0.18870  0.61810  Biso   1.000  H
  C207     1.0000 0.33580  0.15610  0.58450  Biso   1.000  C
  H230     1.0000 0.32870  0.13470  0.63390  Biso   1.000  H
  C208     1.0000 0.35750  0.18790  0.66210  Biso   1.000  C
  H231     1.0000 0.34260  0.18940  0.72460  Biso   1.000  H
  H232     1.0000 0.36760  0.20970  0.61460  Biso   1.000  H
  C209     1.0000 0.38690  0.18340  0.71680  Biso   1.000  C
  H233     1.0000 0.37660  0.16160  0.76430  Biso   1.000  H
  H234     1.0000 0.40140  0.20350  0.76940  Biso   1.000  H
  C210     1.0000 0.41020  0.18150  0.61680  Biso   1.000  C
  H235     1.0000 0.42190  0.20410  0.57360  Biso   1.000  H
  H236     1.0000 0.42880  0.17790  0.65210  Biso   1.000  H
  C211     1.0000 0.38890  0.15210  0.53170  Biso   1.000  C
  H237     1.0000 0.38010  0.12930  0.57250  Biso   1.000  H
  H238     1.0000 0.40420  0.15300  0.46610  Biso   1.000  H
  C212     1.0000 0.35730  0.15440  0.48100  Biso   1.000  C
  H239     1.0000 0.36690  0.17700  0.43660  Biso   1.000  H
  C213     1.0000 0.34650  0.11500  0.32620  Biso   1.000  C
  H240     1.0000 0.37130  0.12640  0.32160  Biso   1.000  H
  C214     1.0000 0.32727  0.08637  0.24300  Biso   1.000  C
  C215     1.0000 0.29183  0.07150  0.21510  Biso   1.000  C
  C216     1.0000 0.27570  0.04200  0.14310  Biso   1.000  C
  C217     1.0000 0.29510  0.02740  0.09910  Biso   1.000  C
  H241     1.0000 0.28410  0.00720  0.04980  Biso   1.000  H
  C218     1.0000 0.33053  0.04230  0.12700  Biso   1.000  C
  C219     1.0000 0.34650  0.07170  0.19890  Biso   1.000  C
  H242     1.0000 0.37080  0.08190  0.21800  Biso   1.000  H
  C220     1.0000 0.23560  0.02430  0.11360  Biso   1.000  C
  C221     1.0000 0.21400  0.01160  0.22520  Biso   1.000  C
  H243     1.0000 0.22120  0.03130  0.27950  Biso   1.000  H
  H244     1.0000 0.18910  0.00150  0.20600  Biso   1.000  H
  H245     1.0000 0.21780  0.99360  0.26250  Biso   1.000  H
  C222     1.0000 0.22900  0.05100  0.04590  Biso   1.000  C
  H246     1.0000 0.24340  0.05850  0.97450  Biso   1.000  H
  H247     1.0000 0.20410  0.03990  0.02420  Biso   1.000  H
  H248     1.0000 0.23520  0.07140  0.09600  Biso   1.000  H
  C223     1.0000 0.22550  0.99450  0.02540  Biso   1.000  C
  H249     1.0000 0.24000  0.00380  0.95450  Biso   1.000  H
  H250     1.0000 0.22940  0.97640  0.06090  Biso   1.000  H
  H251     1.0000 0.20070  0.98430  0.00430  Biso   1.000  H
  C224     1.0000 0.35172  0.02450  0.09240  Biso   1.000  C
  C225     1.0000 0.38810  0.04270  0.09930  Biso   1.000  C
  H252     1.0000 0.40020  0.06660  0.12350  Biso   1.000  H
  C226     1.0000 0.40690  0.02600  0.07100  Biso   1.000  C
  H253     1.0000 0.43190  0.03850  0.07570  Biso   1.000  H
  N24      1.0000 0.38931  0.99110  0.03560  Biso   1.000  N
  C227     1.0000 0.35280  0.97280  0.02860  Biso   1.000  C
  H254     1.0000 0.34070  0.94890  0.00440  Biso   1.000  H
  C228     1.0000 0.33400  0.98950  0.05700  Biso   1.000  C
  H255     1.0000 0.30910  0.97700  0.05220  Biso   1.000  H
  Zn7      1.0000 0.38629  0.22194  0.19028  Biso   1.000  Zn
  Zn8      1.0000 0.55525  0.50322  0.74302  Biso   1.000  Zn
  O13      1.0000 0.54197  0.45393  0.71113  Biso   1.000  O
  O14      1.0000 0.57987  0.52053  0.59443  Biso   1.000  O
  O15      1.0000 0.39097  0.24313  0.34993  Biso   1.000  O
  O16      1.0000 0.42457  0.21113  0.21503  Biso   1.000  O
  N25      1.0000 0.36067  0.17533  0.09693  Biso   1.000  N
  N26      1.0000 0.33717  0.21833  0.16573  Biso   1.000  N
  N27      1.0000 0.51407  0.48443  0.86633  Biso   1.000  N
  N28      1.0000 0.54067  0.54163  0.73463  Biso   1.000  N
  N29      1.0000 0.47897  0.07783  0.85453  Biso   1.000  N
  C229     1.0000 0.44787  0.07703  0.82573  Biso   1.000  C
  H256     1.0000 0.43307  0.06163  0.76583  Biso   1.000  H
  C230     1.0000 0.43827  0.09873  0.88453  Biso   1.000  C
  H257     1.0000 0.41697  0.09813  0.86483  Biso   1.000  H
  C231     1.0000 0.45987  0.12123  0.97213  Biso   1.000  C
  C232     1.0000 0.49097  0.12203  0.00093  Biso   1.000  C
  H258     1.0000 0.50577  0.13753  0.06083  Biso   1.000  H
  C233     1.0000 0.50057  0.10043  0.94223  Biso   1.000  C
  H259     1.0000 0.52187  0.10093  0.96193  Biso   1.000  H
  C234     1.0000 0.49367  0.22413  0.25173  Biso   1.000  C
  C235     1.0000 0.45047  0.14593  0.03733  Biso   1.000  C
  C236     1.0000 0.41710  0.14173  0.02533  Biso   1.000  C
  H260     1.0000 0.40027  0.12363  0.97603  Biso   1.000  H
  C237     1.0000 0.40839  0.16383  0.08533  Biso   1.000  C
  C238     1.0000 0.43307  0.19023  0.15743  Biso   1.000  C
  C239     1.0000 0.46637  0.19443  0.16943  Biso   1.000  C
  C240     1.0000 0.47512  0.17223  0.10943  Biso   1.000  C
  H261     1.0000 0.49787  0.17513  0.11763  Biso   1.000  H
  C241     1.0000 0.47987  0.22023  0.37693  Biso   1.000  C
  H262     1.0000 0.47517  0.19763  0.40913  Biso   1.000  H
  H263     1.0000 0.49757  0.23933  0.42573  Biso   1.000  H
  H264     1.0000 0.45817  0.22133  0.37653  Biso   1.000  H
  C242     1.0000 0.50137  0.25903  0.19843  Biso   1.000  C
  H265     1.0000 0.51027  0.26083  0.11803  Biso   1.000  H
  H266     1.0000 0.47987  0.26033  0.19693  Biso   1.000  H
  H267     1.0000 0.51917  0.27833  0.24613  Biso   1.000  H
  C243     1.0000 0.52847  0.22403  0.25633  Biso   1.000  C
  H268     1.0000 0.53787  0.22653  0.17643  Biso   1.000  H
  H269     1.0000 0.54527  0.24373  0.30503  Biso   1.000  H
  H270     1.0000 0.52447  0.20183  0.29053  Biso   1.000  H
  C244     1.0000 0.37307  0.15643  0.06043  Biso   1.000  C
  H271     1.0000 0.35837  0.13633  0.01433  Biso   1.000  H
  C245     1.0000 0.32167  0.16353  0.07113  Biso   1.000  C
  H272     1.0000 0.30687  0.14873  0.13793  Biso   1.000  H
  C246     1.0000 0.30717  0.14263  0.95243  Biso   1.000  C
  H273     1.0000 0.32357  0.15573  0.88753  Biso   1.000  H
  H274     1.0000 0.30557  0.11943  0.95913  Biso   1.000  H
  C247     1.0000 0.27127  0.13753  0.92423  Biso   1.000  C
  H275     1.0000 0.26437  0.12703  0.84483  Biso   1.000  H
  H276     1.0000 0.25417  0.12053  0.98113  Biso   1.000  H
  C248     1.0000 0.26867  0.16913  0.92703  Biso   1.000  C
  H277     1.0000 0.24387  0.16283  0.91523  Biso   1.000  H
  H278     1.0000 0.28267  0.18483  0.86193  Biso   1.000  H
  C249     1.0000 0.28187  0.18863  0.04473  Biso   1.000  C
  H279     1.0000 0.28067  0.21043  0.04353  Biso   1.000  H
  H280     1.0000 0.26687  0.17363  0.10983  Biso   1.000  H
  C250     1.0000 0.31907  0.19723  0.06403  Biso   1.000  C
  H281     1.0000 0.33277  0.21053  0.99313  Biso   1.000  H
  C251     1.0000 0.31937  0.21943  0.26853  Biso   1.000  C
  H282     1.0000 0.30917  0.19613  0.30653  Biso   1.000  H
  H283     1.0000 0.29947  0.22233  0.24233  Biso   1.000  H
  C252     1.0000 0.33749  0.24501  0.35733  Biso   1.000  C
  C253     1.0000 0.37239  0.25772  0.38823  Biso   1.000  C
  C254     1.0000 0.38902  0.28593  0.46523  Biso   1.000  C
  C255     1.0000 0.37077  0.30146  0.51133  Biso   1.000  C
  H284     1.0000 0.38217  0.32073  0.56403  Biso   1.000  H
  C256     1.0000 0.33587  0.28873  0.48053  Biso   1.000  C
  C257     1.0000 0.31922  0.26053  0.40343  Biso   1.000  C
  H285     1.0000 0.29537  0.25183  0.38233  Biso   1.000  H
  C258     1.0000 0.42837  0.30223  0.50233  Biso   1.000  C
  C259     1.0000 0.43507  0.27533  0.56263  Biso   1.000  C
  H286     1.0000 0.42027  0.26643  0.63313  Biso   1.000  H
  H287     1.0000 0.42927  0.25583  0.50843  Biso   1.000  H
  H288     1.0000 0.45987  0.28633  0.58513  Biso   1.000  H
  C260     1.0000 0.45257  0.31483  0.39213  Biso   1.000  C
  H289     1.0000 0.44937  0.33243  0.34963  Biso   1.000  H
  H290     1.0000 0.47717  0.32533  0.41703  Biso   1.000  H
  H291     1.0000 0.44657  0.29483  0.34033  Biso   1.000  H
  C261     1.0000 0.44237  0.33483  0.58553  Biso   1.000  C
  H292     1.0000 0.43847  0.35273  0.54903  Biso   1.000  H
  H293     1.0000 0.42997  0.32763  0.66103  Biso   1.000  H
  H294     1.0000 0.46757  0.34443  0.59893  Biso   1.000  H
  C262     1.0000 0.31647  0.30813  0.52053  Biso   1.000  C
  C263     1.0000 0.27997  0.29023  0.52323  Biso   1.000  C
  H295     1.0000 0.26717  0.26593  0.50423  Biso   1.000  H
  C264     1.0000 0.26227  0.30783  0.55383  Biso   1.000  C
  H296     1.0000 0.23727  0.29553  0.55563  Biso   1.000  H
  N30      1.0000 0.28097  0.34333  0.58153  Biso   1.000  N
  C265     1.0000 0.31747  0.36133  0.57883  Biso   1.000  C
  H297     1.0000 0.33027  0.38553  0.59783  Biso   1.000  H
  C266     1.0000 0.33527  0.34373  0.54823  Biso   1.000  C
  H298     1.0000 0.36017  0.35593  0.54643  Biso   1.000  H
  C267     1.0000 0.54927  0.40783  0.54093  Biso   1.000  C
  H299     1.0000 0.54977  0.43033  0.54403  Biso   1.000  H
  H300     1.0000 0.56767  0.40973  0.48723  Biso   1.000  H
  H301     1.0000 0.52627  0.38953  0.51243  Biso   1.000  H
  N31      1.0000 0.41507  0.26590  0.08193  Biso   1.000  N
  C268     1.0000 0.41587  0.29683  0.11383  Biso   1.000  C
  H302     1.0000 0.40187  0.29683  0.17733  Biso   1.000  H
  C269     1.0000 0.43727  0.32773  0.05273  Biso   1.000  C
  H303     1.0000 0.43787  0.34883  0.07453  Biso   1.000  H
  C270     1.0000 0.45787  0.32767  0.95973  Biso   1.000  C
  C271     1.0000 0.45697  0.29673  0.92783  Biso   1.000  C
  H304     1.0000 0.47097  0.29673  0.86433  Biso   1.000  H
  C272     1.0000 0.43557  0.26584  0.98893  Biso   1.000  C
  H305     1.0000 0.43497  0.24473  0.96713  Biso   1.000  H
  C273     1.0000 0.55587  0.39813  0.66533  Biso   1.000  C
  C274     1.0000 0.48207  0.36289  0.89293  Biso   1.000  C
  C275     1.0000 0.47777  0.39163  0.91523  Biso   1.000  C
  H306     1.0000 0.46077  0.38973  0.97073  Biso   1.000  H
  C276     1.0000 0.49837  0.42309  0.85613  Biso   1.000  C
  C277     1.0000 0.52327  0.42585  0.77483  Biso   1.000  C
  C278     1.0000 0.52757  0.39713  0.75263  Biso   1.000  C
  C279     1.0000 0.50697  0.36565  0.81163  Biso   1.000  C
  H307     1.0000 0.50987  0.34603  0.79643  Biso   1.000  H
  C280     1.0000 0.55497  0.36343  0.65733  Biso   1.000  C
  H308     1.0000 0.53147  0.34513  0.63183  Biso   1.000  H
  H309     1.0000 0.57237  0.36533  0.59933  Biso   1.000  H
  H310     1.0000 0.56027  0.35733  0.73403  Biso   1.000  H
  C281     1.0000 0.59317  0.42593  0.70493  Biso   1.000  C
  H311     1.0000 0.59457  0.44883  0.71133  Biso   1.000  H
  H312     1.0000 0.59817  0.41923  0.78173  Biso   1.000  H
  H313     1.0000 0.61027  0.42733  0.64703  Biso   1.000  H
  C282     1.0000 0.49587  0.45323  0.89563  Biso   1.000  C
  H314     1.0000 0.47797  0.44833  0.95143  Biso   1.000  H
  C283     1.0000 0.51057  0.51303  0.91783  Biso   1.000  C
  H315     1.0000 0.53197  0.52733  0.96723  Biso   1.000  H
  C284     1.0000 0.47877  0.50293  0.99543  Biso   1.000  C
  H316     1.0000 0.47727  0.48653  0.05793  Biso   1.000  H
  H317     1.0000 0.45697  0.49123  0.94793  Biso   1.000  H
  C285     1.0000 0.48327  0.53683  0.05013  Biso   1.000  C
  H318     1.0000 0.50507  0.54833  0.09763  Biso   1.000  H
  H319     1.0000 0.46317  0.53123  0.10273  Biso   1.000  H
  C286     1.0000 0.48517  0.56203  0.95013  Biso   1.000  C
  H320     1.0000 0.46257  0.55113  0.90693  Biso   1.000  H
  H321     1.0000 0.48877  0.58423  0.98543  Biso   1.000  H
  C287     1.0000 0.51457  0.57013  0.86503  Biso   1.000  C
  H322     1.0000 0.53737  0.58413  0.90583  Biso   1.000  H
  H323     1.0000 0.51367  0.58453  0.79943  Biso   1.000  H
  C288     1.0000 0.51227  0.53623  0.81433  Biso   1.000  C
  H324     1.0000 0.48967  0.52323  0.76993  Biso   1.000  H
  C289     1.0000 0.55167  0.56483  0.65953  Biso   1.000  C
  H325     1.0000 0.54027  0.57823  0.65493  Biso   1.000  H
  C290     1.0000 0.58030  0.57423  0.57633  Biso   1.000  C
  C291     1.0000 0.59517  0.55366  0.54843  Biso   1.000  C
  C292     1.0000 0.62467  0.56703  0.47643  Biso   1.000  C
  C293     1.0000 0.63927  0.60103  0.43243  Biso   1.000  C
  H326     1.0000 0.65947  0.61023  0.38313  Biso   1.000  H
  C294     1.0000 0.62437  0.62156  0.46033  Biso   1.000  C
  C295     1.0000 0.59497  0.60813  0.53223  Biso   1.000  C
  H327     1.0000 0.58477  0.62223  0.55133  Biso   1.000  H
  C296     1.0000 0.64237  0.54463  0.44693  Biso   1.000  C
  C297     1.0000 0.65507  0.53573  0.55853  Biso   1.000  C
  H328     1.0000 0.63537  0.52323  0.61283  Biso   1.000  H
  H329     1.0000 0.66517  0.52093  0.53933  Biso   1.000  H
  H330     1.0000 0.67307  0.55753  0.59583  Biso   1.000  H
  C298     1.0000 0.61567  0.51133  0.37923  Biso   1.000  C
  H331     1.0000 0.60817  0.51823  0.30783  Biso   1.000  H
  H332     1.0000 0.62677  0.49753  0.35753  Biso   1.000  H
  H333     1.0000 0.59527  0.49713  0.42933  Biso   1.000  H
  C299     1.0000 0.67217  0.56433  0.35873  Biso   1.000  C
  H334     1.0000 0.66287  0.56953  0.28783  Biso   1.000  H
  H335     1.0000 0.69027  0.58633  0.39423  Biso   1.000  H
  H336     1.0000 0.68237  0.54973  0.33763  Biso   1.000  H
  C300     1.0000 0.64217  0.66055  0.42573  Biso   1.000  C
  C301     1.0000 0.62397  0.67873  0.43263  Biso   1.000  C
  H337     1.0000 0.60007  0.66693  0.45683  Biso   1.000  H
  C302     1.0000 0.64067  0.71423  0.40433  Biso   1.000  C
  H338     1.0000 0.62817  0.72673  0.40903  Biso   1.000  H
  N32      1.0000 0.67557  0.73154  0.36893  Biso   1.000  N
  C303     1.0000 0.69387  0.71333  0.36193  Biso   1.000  C
  H339     1.0000 0.71777  0.72513  0.33773  Biso   1.000  H
  C304     1.0000 0.67717  0.67783  0.39033  Biso   1.000  C
  H340     1.0000 0.68967  0.66543  0.38553  Biso   1.000  H
  Zn9      1.0000 0.77806  0.16434  0.19028  Biso   1.000  Zn
  Zn10     1.0000 0.49678  0.05202  0.74302  Biso   1.000  Zn
  O17      1.0000 0.54607  0.08803  0.71113  Biso   1.000  O
  O18      1.0000 0.47947  0.05933  0.59443  Biso   1.000  O
  O19      1.0000 0.75687  0.14783  0.34993  Biso   1.000  O
  O20      1.0000 0.78887  0.21343  0.21503  Biso   1.000  O
  N33      1.0000 0.82467  0.18533  0.09693  Biso   1.000  N
  N34      1.0000 0.78167  0.11883  0.16573  Biso   1.000  N
  N35      1.0000 0.51557  0.02963  0.86633  Biso   1.000  N
  N36      1.0000 0.45837  0.99903  0.73463  Biso   1.000  N
  N37      1.0000 0.92217  0.40113  0.85453  Biso   1.000  N
  C305     1.0000 0.92297  0.37083  0.82573  Biso   1.000  C
  H341     1.0000 0.93837  0.37143  0.76583  Biso   1.000  H
  C306     1.0000 0.90127  0.33953  0.88453  Biso   1.000  C
  H342     1.0000 0.90187  0.31883  0.86483  Biso   1.000  H
  C307     1.0000 0.87877  0.33863  0.97213  Biso   1.000  C
  C308     1.0000 0.87797  0.36893  0.00093  Biso   1.000  C
  H343     1.0000 0.86247  0.36823  0.06083  Biso   1.000  H
  C309     1.0000 0.89957  0.40013  0.94223  Biso   1.000  C
  H344     1.0000 0.89907  0.42093  0.96193  Biso   1.000  H
  C310     1.0000 0.77587  0.26953  0.25173  Biso   1.000  C
  C311     1.0000 0.85407  0.30453  0.03733  Biso   1.000  C
  C312     1.0000 0.85827  0.27536  0.02533  Biso   1.000  C
  H345     1.0000 0.87637  0.27663  0.97603  Biso   1.000  H
  C313     1.0000 0.83617  0.24455  0.08533  Biso   1.000  C
  C314     1.0000 0.80977  0.24283  0.15743  Biso   1.000  C
  C315     1.0000 0.80557  0.27193  0.16943  Biso   1.000  C
  C316     1.0000 0.82777  0.30288  0.10943  Biso   1.000  C
  H346     1.0000 0.82487  0.32273  0.11763  Biso   1.000  H
  C317     1.0000 0.77977  0.25963  0.37693  Biso   1.000  C
  H347     1.0000 0.80237  0.27753  0.40913  Biso   1.000  H
  H348     1.0000 0.76067  0.25823  0.42573  Biso   1.000  H
  H349     1.0000 0.77867  0.23683  0.37653  Biso   1.000  H
  C318     1.0000 0.74097  0.24233  0.19843  Biso   1.000  C
  H350     1.0000 0.73917  0.24943  0.11803  Biso   1.000  H
  H351     1.0000 0.73967  0.21953  0.19693  Biso   1.000  H
  H352     1.0000 0.72167  0.24083  0.24613  Biso   1.000  H
  C319     1.0000 0.77597  0.30443  0.25633  Biso   1.000  C
  H353     1.0000 0.77347  0.31133  0.17643  Biso   1.000  H
  H354     1.0000 0.75627  0.30153  0.30503  Biso   1.000  H
  H355     1.0000 0.79817  0.32263  0.29053  Biso   1.000  H
  C320     1.0000 0.84357  0.21663  0.06043  Biso   1.000  C
  H356     1.0000 0.86367  0.22203  0.01433  Biso   1.000  H
  C321     1.0000 0.83647  0.15813  0.07113  Biso   1.000  C
  H357     1.0000 0.85127  0.15813  0.13793  Biso   1.000  H
  C322     1.0000 0.85737  0.16453  0.95243  Biso   1.000  C
  H358     1.0000 0.84427  0.16783  0.88753  Biso   1.000  H
  H359     1.0000 0.88057  0.18613  0.95913  Biso   1.000  H
  C323     1.0000 0.86247  0.13373  0.92423  Biso   1.000  C
  H360     1.0000 0.87297  0.13733  0.84483  Biso   1.000  H
  H361     1.0000 0.87947  0.13363  0.98113  Biso   1.000  H
  C324     1.0000 0.83087  0.09953  0.92703  Biso   1.000  C
  H362     1.0000 0.83717  0.08103  0.91523  Biso   1.000  H
  H363     1.0000 0.81517  0.09783  0.86193  Biso   1.000  H
  C325     1.0000 0.81137  0.09323  0.04473  Biso   1.000  C
  H364     1.0000 0.78957  0.07023  0.04353  Biso   1.000  H
  H365     1.0000 0.82637  0.09323  0.10983  Biso   1.000  H
  C326     1.0000 0.80277  0.12183  0.06403  Biso   1.000  C
  H366     1.0000 0.78947  0.12223  0.99313  Biso   1.000  H
  C327     1.0000 0.78057  0.09993  0.26853  Biso   1.000  C
  H367     1.0000 0.80387  0.11303  0.30653  Biso   1.000  H
  H368     1.0000 0.77767  0.07713  0.24233  Biso   1.000  H
  C328     1.0000 0.75499  0.09247  0.35733  Biso   1.000  C
  C329     1.0000 0.74228  0.11466  0.38823  Biso   1.000  C
  C330     1.0000 0.71407  0.10308  0.46523  Biso   1.000  C
  C331     1.0000 0.69854  0.06930  0.51133  Biso   1.000  C
  H369     1.0000 0.67927  0.06143  0.56403  Biso   1.000  H
  C332     1.0000 0.71127  0.04713  0.48053  Biso   1.000  C
  C333     1.0000 0.73947  0.05868  0.40343  Biso   1.000  C
  H370     1.0000 0.74817  0.04353  0.38233  Biso   1.000  H
  C334     1.0000 0.69777  0.12613  0.50233  Biso   1.000  C
  C335     1.0000 0.72467  0.15973  0.56263  Biso   1.000  C
  H371     1.0000 0.73357  0.15383  0.63313  Biso   1.000  H
  H372     1.0000 0.74417  0.17343  0.50843  Biso   1.000  H
  H373     1.0000 0.71367  0.17353  0.58513  Biso   1.000  H
  C336     1.0000 0.68517  0.13773  0.39213  Biso   1.000  C
  H374     1.0000 0.66757  0.11693  0.34963  Biso   1.000  H
  H375     1.0000 0.67467  0.15183  0.41703  Biso   1.000  H
  H376     1.0000 0.70517  0.15173  0.34033  Biso   1.000  H
  C337     1.0000 0.66517  0.10753  0.58553  Biso   1.000  C
  H377     1.0000 0.64727  0.08573  0.54903  Biso   1.000  H
  H378     1.0000 0.67237  0.10233  0.66103  Biso   1.000  H
  H379     1.0000 0.65557  0.12313  0.59893  Biso   1.000  H
  C338     1.0000 0.69187  0.00833  0.52053  Biso   1.000  C
  C339     1.0000 0.70977  0.98973  0.52323  Biso   1.000  C
  H380     1.0000 0.73407  0.00123  0.50423  Biso   1.000  H
  C340     1.0000 0.69217  0.95443  0.55383  Biso   1.000  C
  H381     1.0000 0.70447  0.94173  0.55563  Biso   1.000  H
  N38      1.0000 0.65667  0.93763  0.58153  Biso   1.000  N
  C341     1.0000 0.63867  0.95613  0.57883  Biso   1.000  C
  H382     1.0000 0.61447  0.94473  0.59783  Biso   1.000  H
  C342     1.0000 0.65627  0.99153  0.54823  Biso   1.000  C
  H383     1.0000 0.64407  0.00423  0.54643  Biso   1.000  H
  C343     1.0000 0.59217  0.14143  0.54093  Biso   1.000  C
  H384     1.0000 0.56967  0.11943  0.54403  Biso   1.000  H
  H385     1.0000 0.59027  0.15793  0.48723  Biso   1.000  H
  H386     1.0000 0.61047  0.13673  0.51243  Biso   1.000  H
  N39      1.0000 0.73410  0.14916  0.08193  Biso   1.000  N
  C344     1.0000 0.70317  0.11903  0.11383  Biso   1.000  C
  H387     1.0000 0.70317  0.10503  0.17733  Biso   1.000  H
  C345     1.0000 0.67227  0.10953  0.05273  Biso   1.000  C
  H388     1.0000 0.65117  0.08903  0.07453  Biso   1.000  H
  C346     1.0000 0.67233  0.13019  0.95973  Biso   1.000  C
  C347     1.0000 0.70327  0.16023  0.92783  Biso   1.000  C
  H389     1.0000 0.70327  0.17423  0.86433  Biso   1.000  H
  C348     1.0000 0.73416  0.16972  0.98893  Biso   1.000  C
  H390     1.0000 0.75527  0.19023  0.96713  Biso   1.000  H
  C349     1.0000 0.60187  0.15773  0.66533  Biso   1.000  C
  C350     1.0000 0.63711  0.11917  0.89293  Biso   1.000  C
  C351     1.0000 0.60837  0.08613  0.91523  Biso   1.000  C
  H391     1.0000 0.61027  0.07103  0.97073  Biso   1.000  H
  C352     1.0000 0.57691  0.07527  0.85613  Biso   1.000  C
  C353     1.0000 0.57415  0.09741  0.77483  Biso   1.000  C
  C354     1.0000 0.60287  0.13043  0.75263  Biso   1.000  C
  C355     1.0000 0.63435  0.14131  0.81163  Biso   1.000  C
  H392     1.0000 0.65397  0.16383  0.79643  Biso   1.000  H
  C356     1.0000 0.63657  0.19153  0.65733  Biso   1.000  C
  H393     1.0000 0.65487  0.18633  0.63183  Biso   1.000  H
  H394     1.0000 0.63467  0.20703  0.59933  Biso   1.000  H
  H395     1.0000 0.64267  0.20293  0.73403  Biso   1.000  H
  C357     1.0000 0.57407  0.16723  0.70493  Biso   1.000  C
  H396     1.0000 0.55117  0.14573  0.71133  Biso   1.000  H
  H397     1.0000 0.58077  0.17893  0.78173  Biso   1.000  H
  H398     1.0000 0.57267  0.18293  0.64703  Biso   1.000  H
  C358     1.0000 0.54677  0.04263  0.89563  Biso   1.000  C
  H399     1.0000 0.55167  0.02963  0.95143  Biso   1.000  H
  C359     1.0000 0.48697  0.99753  0.91783  Biso   1.000  C
  H400     1.0000 0.47267  0.00463  0.96723  Biso   1.000  H
  C360     1.0000 0.49707  0.97583  0.99543  Biso   1.000  C
  H401     1.0000 0.51347  0.99073  0.05793  Biso   1.000  H
  H402     1.0000 0.50877  0.96573  0.94793  Biso   1.000  H
  C361     1.0000 0.46317  0.94643  0.05013  Biso   1.000  C
  H403     1.0000 0.45167  0.95673  0.09763  Biso   1.000  H
  H404     1.0000 0.46877  0.93193  0.10273  Biso   1.000  H
  C362     1.0000 0.43797  0.92313  0.95013  Biso   1.000  C
  H405     1.0000 0.44887  0.91143  0.90693  Biso   1.000  H
  H406     1.0000 0.41577  0.90453  0.98543  Biso   1.000  H
  C363     1.0000 0.42987  0.94443  0.86503  Biso   1.000  C
  H407     1.0000 0.41587  0.95323  0.90583  Biso   1.000  H
  H408     1.0000 0.41547  0.92913  0.79943  Biso   1.000  H
  C364     1.0000 0.46377  0.97603  0.81433  Biso   1.000  C
  H409     1.0000 0.47677  0.96643  0.76993  Biso   1.000  H
  C365     1.0000 0.43517  0.98683  0.65953  Biso   1.000  C
  H410     1.0000 0.42177  0.96203  0.65493  Biso   1.000  H
  C366     1.0000 0.42577  0.00606  0.57633  Biso   1.000  C
  C367     1.0000 0.44634  0.04150  0.54843  Biso   1.000  C
  C368     1.0000 0.43297  0.05763  0.47643  Biso   1.000  C
  C369     1.0000 0.39897  0.03823  0.43243  Biso   1.000  C
  H411     1.0000 0.38977  0.04923  0.38313  Biso   1.000  H
  C370     1.0000 0.37844  0.00280  0.46033  Biso   1.000  C
  C371     1.0000 0.39187  0.98683  0.53223  Biso   1.000  C
  H412     1.0000 0.37777  0.96253  0.55133  Biso   1.000  H
  C372     1.0000 0.45537  0.09773  0.44693  Biso   1.000  C
  C373     1.0000 0.46427  0.11933  0.55853  Biso   1.000  C
  H413     1.0000 0.47677  0.11213  0.61283  Biso   1.000  H
  H414     1.0000 0.47907  0.14423  0.53933  Biso   1.000  H
  H415     1.0000 0.44247  0.11553  0.59583  Biso   1.000  H
  C374     1.0000 0.48867  0.10433  0.37923  Biso   1.000  C
  H416     1.0000 0.48177  0.08993  0.30783  Biso   1.000  H
  H417     1.0000 0.50247  0.12923  0.35753  Biso   1.000  H
  H418     1.0000 0.50287  0.09813  0.42933  Biso   1.000  H
  C375     1.0000 0.43567  0.10783  0.35873  Biso   1.000  C
  H419     1.0000 0.43047  0.09333  0.28783  Biso   1.000  H
  H420     1.0000 0.41367  0.10393  0.39423  Biso   1.000  H
  H421     1.0000 0.45027  0.13263  0.33763  Biso   1.000  H
  C376     1.0000 0.33945  0.98161  0.42573  Biso   1.000  C
  C377     1.0000 0.32127  0.94523  0.43263  Biso   1.000  C
  H422     1.0000 0.33307  0.93313  0.45683  Biso   1.000  H
  C378     1.0000 0.28577  0.92643  0.40433  Biso   1.000  C
  H423     1.0000 0.27327  0.90143  0.40903  Biso   1.000  H
  N40      1.0000 0.26846  0.94402  0.36893  Biso   1.000  N
  C379     1.0000 0.28667  0.98053  0.36193  Biso   1.000  C
  H424     1.0000 0.27487  0.99263  0.33773  Biso   1.000  H
  C380     1.0000 0.32217  0.99933  0.39033  Biso   1.000  C
  H425     1.0000 0.33457  0.02423  0.38553  Biso   1.000  H
  Zn11     1.0000 0.83566  0.61371  0.19028  Biso   1.000  Zn
  Zn12     1.0000 0.94798  0.44475  0.74302  Biso   1.000  Zn
  O21      1.0000 0.91197  0.45803  0.71113  Biso   1.000  O
  O22      1.0000 0.94067  0.42013  0.59443  Biso   1.000  O
  O23      1.0000 0.85217  0.60903  0.34993  Biso   1.000  O
  O24      1.0000 0.78657  0.57543  0.21503  Biso   1.000  O
  N41      1.0000 0.81467  0.63933  0.09693  Biso   1.000  N
  N42      1.0000 0.88117  0.66283  0.16573  Biso   1.000  N
  N43      1.0000 0.97037  0.48593  0.86633  Biso   1.000  N
  N44      1.0000 0.00097  0.45933  0.73463  Biso   1.000  N
  N45      1.0000 0.59887  0.52103  0.85453  Biso   1.000  N
  C381     1.0000 0.62917  0.55213  0.82573  Biso   1.000  C
  H426     1.0000 0.62857  0.56693  0.76583  Biso   1.000  H
  C382     1.0000 0.66047  0.56173  0.88453  Biso   1.000  C
  H427     1.0000 0.68117  0.58303  0.86483  Biso   1.000  H
  C383     1.0000 0.66137  0.54013  0.97213  Biso   1.000  C
  C384     1.0000 0.63107  0.50903  0.00093  Biso   1.000  C
  H428     1.0000 0.63177  0.49423  0.06083  Biso   1.000  H
  C385     1.0000 0.59987  0.49943  0.94223  Biso   1.000  C
  H429     1.0000 0.57907  0.47813  0.96193  Biso   1.000  H
  C386     1.0000 0.73047  0.50633  0.25173  Biso   1.000  C
  C387     1.0000 0.69547  0.54953  0.03733  Biso   1.000  C
  C388     1.0000 0.72464  0.58290  0.02533  Biso   1.000  C
  H430     1.0000 0.72337  0.59973  0.97603  Biso   1.000  H
  C389     1.0000 0.75545  0.59161  0.08533  Biso   1.000  C
  C390     1.0000 0.75717  0.56693  0.15743  Biso   1.000  C
  C391     1.0000 0.72807  0.53363  0.16943  Biso   1.000  C
  C392     1.0000 0.69712  0.52488  0.10943  Biso   1.000  C
  H431     1.0000 0.67727  0.50213  0.11763  Biso   1.000  H
  C393     1.0000 0.74037  0.52013  0.37693  Biso   1.000  C
  H432     1.0000 0.72247  0.52483  0.40913  Biso   1.000  H
  H433     1.0000 0.74177  0.50243  0.42573  Biso   1.000  H
  H434     1.0000 0.76317  0.54183  0.37653  Biso   1.000  H
  C394     1.0000 0.75767  0.49863  0.19843  Biso   1.000  C
  H435     1.0000 0.75057  0.48973  0.11803  Biso   1.000  H
  H436     1.0000 0.78047  0.52013  0.19693  Biso   1.000  H
  H437     1.0000 0.75917  0.48083  0.24613  Biso   1.000  H
  C395     1.0000 0.69557  0.47153  0.25633  Biso   1.000  C
  H438     1.0000 0.68867  0.46213  0.17643  Biso   1.000  H
  H439     1.0000 0.69847  0.45473  0.30503  Biso   1.000  H
  H440     1.0000 0.67737  0.47553  0.29053  Biso   1.000  H
  C396     1.0000 0.78337  0.62693  0.06043  Biso   1.000  C
  H441     1.0000 0.77797  0.64163  0.01433  Biso   1.000  H
  C397     1.0000 0.84187  0.67833  0.07113  Biso   1.000  C
  H442     1.0000 0.84187  0.69313  0.13793  Biso   1.000  H
  C398     1.0000 0.83547  0.69283  0.95243  Biso   1.000  C
  H443     1.0000 0.83217  0.67643  0.88753  Biso   1.000  H
  H444     1.0000 0.81387  0.69443  0.95913  Biso   1.000  H
  C399     1.0000 0.86627  0.72873  0.92423  Biso   1.000  C
  H445     1.0000 0.86267  0.73563  0.84483  Biso   1.000  H
  H446     1.0000 0.86637  0.74583  0.98113  Biso   1.000  H
  C400     1.0000 0.90047  0.73133  0.92703  Biso   1.000  C
  H447     1.0000 0.91897  0.75613  0.91523  Biso   1.000  H
  H448     1.0000 0.90217  0.71733  0.86193  Biso   1.000  H
  C401     1.0000 0.90677  0.71813  0.04473  Biso   1.000  C
  H449     1.0000 0.92977  0.71933  0.04353  Biso   1.000  H
  H450     1.0000 0.90677  0.73313  0.10983  Biso   1.000  H
  C402     1.0000 0.87817  0.68093  0.06403  Biso   1.000  C
  H451     1.0000 0.87777  0.66723  0.99313  Biso   1.000  H
  C403     1.0000 0.90007  0.68063  0.26853  Biso   1.000  C
  H452     1.0000 0.88697  0.69083  0.30653  Biso   1.000  H
  H453     1.0000 0.92287  0.70053  0.24233  Biso   1.000  H
  C404     1.0000 0.90753  0.66251  0.35733  Biso   1.000  C
  C405     1.0000 0.88534  0.62761  0.38823  Biso   1.000  C
  C406     1.0000 0.89692  0.61098  0.46523  Biso   1.000  C
  C407     1.0000 0.93070  0.62923  0.51133  Biso   1.000  C
  H454     1.0000 0.93857  0.61783  0.56403  Biso   1.000  H
  C408     1.0000 0.95287  0.66413  0.48053  Biso   1.000  C
  C409     1.0000 0.94132  0.68078  0.40343  Biso   1.000  C
  H455     1.0000 0.95647  0.70463  0.38233  Biso   1.000  H
  C410     1.0000 0.87387  0.57163  0.50233  Biso   1.000  C
  C411     1.0000 0.84027  0.56493  0.56263  Biso   1.000  C
  H456     1.0000 0.84617  0.57973  0.63313  Biso   1.000  H
  H457     1.0000 0.82657  0.57073  0.50843  Biso   1.000  H
  H458     1.0000 0.82647  0.54013  0.58513  Biso   1.000  H
  C412     1.0000 0.86227  0.54743  0.39213  Biso   1.000  C
  H459     1.0000 0.88307  0.55063  0.34963  Biso   1.000  H
  H460     1.0000 0.84817  0.52283  0.41703  Biso   1.000  H
  H461     1.0000 0.84827  0.55343  0.34033  Biso   1.000  H
  C413     1.0000 0.89247  0.55763  0.58553  Biso   1.000  C
  H462     1.0000 0.91427  0.56153  0.54903  Biso   1.000  H
  H463     1.0000 0.89767  0.57003  0.66103  Biso   1.000  H
  H464     1.0000 0.87687  0.53243  0.59893  Biso   1.000  H
  C414     1.0000 0.99167  0.68353  0.52053  Biso   1.000  C
  C415     1.0000 0.01027  0.72003  0.52323  Biso   1.000  C
  H465     1.0000 0.99877  0.73283  0.50423  Biso   1.000  H
  C416     1.0000 0.04557  0.73773  0.55383  Biso   1.000  C
  H466     1.0000 0.05827  0.76273  0.55563  Biso   1.000  H
  N46      1.0000 0.06237  0.71903  0.58153  Biso   1.000  N
  C417     1.0000 0.04387  0.68253  0.57883  Biso   1.000  C
  H467     1.0000 0.05527  0.66973  0.59783  Biso   1.000  H
  C418     1.0000 0.00847  0.66473  0.54823  Biso   1.000  C
  H468     1.0000 0.99577  0.63983  0.54643  Biso   1.000  H
  C419     1.0000 0.85857  0.45073  0.54093  Biso   1.000  C
  H469     1.0000 0.88057  0.45023  0.54403  Biso   1.000  H
  H470     1.0000 0.84207  0.43233  0.48723  Biso   1.000  H
  H471     1.0000 0.86327  0.47373  0.51243  Biso   1.000  H
  N47      1.0000 0.85084  0.58493  0.08193  Biso   1.000  N
  C420     1.0000 0.88097  0.58413  0.11383  Biso   1.000  C
  H472     1.0000 0.89497  0.59813  0.17733  Biso   1.000  H
  C421     1.0000 0.89047  0.56273  0.05273  Biso   1.000  C
  H473     1.0000 0.91097  0.56213  0.07453  Biso   1.000  H
  C422     1.0000 0.86981  0.54213  0.95973  Biso   1.000  C
  C423     1.0000 0.83977  0.54303  0.92783  Biso   1.000  C
  H474     1.0000 0.82577  0.52903  0.86433  Biso   1.000  H
  C424     1.0000 0.83028  0.56443  0.98893  Biso   1.000  C
  H475     1.0000 0.80977  0.56503  0.96713  Biso   1.000  H
  C425     1.0000 0.84227  0.44413  0.66533  Biso   1.000  C
  C426     1.0000 0.88083  0.51793  0.89293  Biso   1.000  C
  C427     1.0000 0.91387  0.52223  0.91523  Biso   1.000  C
  H476     1.0000 0.92897  0.53923  0.97073  Biso   1.000  H
  C428     1.0000 0.92473  0.50163  0.85613  Biso   1.000  C
  C429     1.0000 0.90259  0.47673  0.77483  Biso   1.000  C
  C430     1.0000 0.86957  0.47243  0.75263  Biso   1.000  C
  C431     1.0000 0.85869  0.49303  0.81163  Biso   1.000  C
  H477     1.0000 0.83617  0.49013  0.79643  Biso   1.000  H
  C432     1.0000 0.80847  0.44503  0.65733  Biso   1.000  C
  H478     1.0000 0.81367  0.46853  0.63183  Biso   1.000  H
  H479     1.0000 0.79297  0.42763  0.59933  Biso   1.000  H
  H480     1.0000 0.79707  0.43973  0.73403  Biso   1.000  H
  C433     1.0000 0.83277  0.40683  0.70493  Biso   1.000  C
  H481     1.0000 0.85427  0.40543  0.71133  Biso   1.000  H
  H482     1.0000 0.82107  0.40183  0.78173  Biso   1.000  H
  H483     1.0000 0.81707  0.38973  0.64703  Biso   1.000  H
  C434     1.0000 0.95737  0.50413  0.89563  Biso   1.000  C
  H484     1.0000 0.97037  0.52203  0.95143  Biso   1.000  H
  C435     1.0000 0.00247  0.48943  0.91783  Biso   1.000  C
  H485     1.0000 0.99537  0.46803  0.96723  Biso   1.000  H
  C436     1.0000 0.02417  0.52123  0.99543  Biso   1.000  C
  H486     1.0000 0.00927  0.52273  0.05793  Biso   1.000  H
  H487     1.0000 0.03427  0.54303  0.94793  Biso   1.000  H
  C437     1.0000 0.05357  0.51673  0.05013  Biso   1.000  C
  H488     1.0000 0.04327  0.49493  0.09763  Biso   1.000  H
  H489     1.0000 0.06807  0.53683  0.10273  Biso   1.000  H
  C438     1.0000 0.07687  0.51483  0.95013  Biso   1.000  C
  H490     1.0000 0.08857  0.53743  0.90693  Biso   1.000  H
  H491     1.0000 0.09547  0.51123  0.98543  Biso   1.000  H
  C439     1.0000 0.05557  0.48543  0.86503  Biso   1.000  C
  H492     1.0000 0.04677  0.46263  0.90583  Biso   1.000  H
  H493     1.0000 0.07087  0.48633  0.79943  Biso   1.000  H
  C440     1.0000 0.02397  0.48773  0.81433  Biso   1.000  C
  H494     1.0000 0.03357  0.51033  0.76993  Biso   1.000  H
  C441     1.0000 0.01317  0.44833  0.65953  Biso   1.000  C
  H495     1.0000 0.03797  0.45973  0.65493  Biso   1.000  H
  C442     1.0000 0.99394  0.41970  0.57633  Biso   1.000  C
  C443     1.0000 0.95850  0.40483  0.54843  Biso   1.000  C
  C444     1.0000 0.94237  0.37533  0.47643  Biso   1.000  C
  C445     1.0000 0.96177  0.36073  0.43243  Biso   1.000  C
  H496     1.0000 0.95077  0.34053  0.38313  Biso   1.000  H
  C446     1.0000 0.99720  0.37563  0.46033  Biso   1.000  C
  C447     1.0000 0.01317  0.40503  0.53223  Biso   1.000  C
  H497     1.0000 0.03747  0.41523  0.55133  Biso   1.000  H
  C448     1.0000 0.90227  0.35763  0.44693  Biso   1.000  C
  C449     1.0000 0.88067  0.34493  0.55853  Biso   1.000  C
  H498     1.0000 0.88787  0.36463  0.61283  Biso   1.000  H
  H499     1.0000 0.85577  0.33483  0.53933  Biso   1.000  H
  H500     1.0000 0.88447  0.32693  0.59583  Biso   1.000  H
  C450     1.0000 0.89567  0.38433  0.37923  Biso   1.000  C
  H501     1.0000 0.91007  0.39183  0.30783  Biso   1.000  H
  H502     1.0000 0.87077  0.37323  0.35753  Biso   1.000  H
  H503     1.0000 0.90187  0.40473  0.42933  Biso   1.000  H
  C451     1.0000 0.89217  0.32783  0.35873  Biso   1.000  C
  H504     1.0000 0.90667  0.33713  0.28783  Biso   1.000  H
  H505     1.0000 0.89607  0.30973  0.39423  Biso   1.000  H
  H506     1.0000 0.86737  0.31763  0.33763  Biso   1.000  H
  C452     1.0000 0.01839  0.35783  0.42573  Biso   1.000  C
  C453     1.0000 0.05477  0.37603  0.43263  Biso   1.000  C
  H507     1.0000 0.06687  0.39993  0.45683  Biso   1.000  H
  C454     1.0000 0.07357  0.35933  0.40433  Biso   1.000  C
  H508     1.0000 0.09857  0.37183  0.40903  Biso   1.000  H
  N48      1.0000 0.05598  0.32443  0.36893  Biso   1.000  N
  C455     1.0000 0.01947  0.30613  0.36193  Biso   1.000  C
  H509     1.0000 0.00737  0.28223  0.33773  Biso   1.000  H
  C456     1.0000 0.00067  0.32283  0.39033  Biso   1.000  C
  H510     1.0000 0.97577  0.31033  0.38553  Biso   1.000  H
  Zn13     1.0000 0.05295  0.55528  0.52362  Biso   1.000  Zn
  Zn14     1.0000 0.22191  0.83656  0.07636  Biso   1.000  Zn
  O25      1.0000 0.20863  0.78727  0.04447  Biso   1.000  O
  O26      1.0000 0.24653  0.85387  0.92777  Biso   1.000  O
  O27      1.0000 0.05763  0.57647  0.68327  Biso   1.000  O
  O28      1.0000 0.09123  0.54447  0.54837  Biso   1.000  O
  N49      1.0000 0.02733  0.50867  0.43027  Biso   1.000  N
  N50      1.0000 0.00383  0.55167  0.49907  Biso   1.000  N
  N51      1.0000 0.18073  0.81777  0.19967  Biso   1.000  N
  N52      1.0000 0.20733  0.87497  0.06797  Biso   1.000  N
  N53      1.0000 0.14563  0.41117  0.18787  Biso   1.000  N
  C457     1.0000 0.11453  0.41037  0.15907  Biso   1.000  C
  H511     1.0000 0.09973  0.39497  0.09917  Biso   1.000  H
  C458     1.0000 0.10493  0.43207  0.21787  Biso   1.000  C
  H512     1.0000 0.08363  0.43147  0.19817  Biso   1.000  H
  C459     1.0000 0.12653  0.45457  0.30547  Biso   1.000  C
  C460     1.0000 0.15763  0.45537  0.33427  Biso   1.000  C
  H513     1.0000 0.17243  0.47087  0.39417  Biso   1.000  H
  C461     1.0000 0.16723  0.43377  0.27557  Biso   1.000  C
  H514     1.0000 0.18853  0.43427  0.29527  Biso   1.000  H
  C462     1.0000 0.16033  0.55747  0.58507  Biso   1.000  C
  C463     1.0000 0.11713  0.47927  0.37067  Biso   1.000  C
  C464     1.0000 0.08376  0.47507  0.35867  Biso   1.000  C
  H515     1.0000 0.06693  0.45697  0.30937  Biso   1.000  H
  C465     1.0000 0.07505  0.49717  0.41867  Biso   1.000  C
  C466     1.0000 0.09973  0.52357  0.49077  Biso   1.000  C
  C467     1.0000 0.13303  0.52777  0.50277  Biso   1.000  C
  C468     1.0000 0.14178  0.50557  0.44277  Biso   1.000  C
  H516     1.0000 0.16453  0.50847  0.45097  Biso   1.000  H
  C469     1.0000 0.14653  0.55357  0.71027  Biso   1.000  C
  H517     1.0000 0.14183  0.53097  0.74247  Biso   1.000  H
  H518     1.0000 0.16423  0.57267  0.75907  Biso   1.000  H
  H519     1.0000 0.12483  0.55467  0.70987  Biso   1.000  H
  C470     1.0000 0.16803  0.59237  0.53177  Biso   1.000  C
  H520     1.0000 0.17693  0.59417  0.45137  Biso   1.000  H
  H521     1.0000 0.14653  0.59367  0.53027  Biso   1.000  H
  H522     1.0000 0.18583  0.61167  0.57947  Biso   1.000  H
  C471     1.0000 0.19513  0.55737  0.58967  Biso   1.000  C
  H523     1.0000 0.20453  0.55987  0.50977  Biso   1.000  H
  H524     1.0000 0.21193  0.57707  0.63837  Biso   1.000  H
  H525     1.0000 0.19113  0.53517  0.62387  Biso   1.000  H
  C472     1.0000 0.03973  0.48977  0.39377  Biso   1.000  C
  H526     1.0000 0.02503  0.46967  0.34767  Biso   1.000  H
  C473     1.0000 0.98833  0.49687  0.40447  Biso   1.000  C
  H527     1.0000 0.97353  0.48207  0.47127  Biso   1.000  H
  C474     1.0000 0.97383  0.47597  0.28577  Biso   1.000  C
  H528     1.0000 0.99023  0.48907  0.22087  Biso   1.000  H
  H529     1.0000 0.97223  0.45277  0.29247  Biso   1.000  H
  C475     1.0000 0.93793  0.47087  0.25757  Biso   1.000  C
  H530     1.0000 0.93103  0.46037  0.17817  Biso   1.000  H
  H531     1.0000 0.92083  0.45387  0.31447  Biso   1.000  H
  C476     1.0000 0.93533  0.50247  0.26037  Biso   1.000  C
  H532     1.0000 0.91053  0.49617  0.24857  Biso   1.000  H
  H533     1.0000 0.94933  0.51817  0.19527  Biso   1.000  H
  C477     1.0000 0.94853  0.52197  0.37807  Biso   1.000  C
  H534     1.0000 0.94733  0.54377  0.37687  Biso   1.000  H
  H535     1.0000 0.93353  0.50697  0.44317  Biso   1.000  H
  C478     1.0000 0.98573  0.53057  0.39737  Biso   1.000  C
  H536     1.0000 0.99943  0.54387  0.32647  Biso   1.000  H
  C479     1.0000 0.98603  0.55277  0.60187  Biso   1.000  C
  H537     1.0000 0.97583  0.52947  0.63987  Biso   1.000  H
  H538     1.0000 0.96613  0.55567  0.57567  Biso   1.000  H
  C480     1.0000 0.00415  0.57835  0.69067  Biso   1.000  C
  C481     1.0000 0.03905  0.59106  0.72157  Biso   1.000  C
  C482     1.0000 0.05568  0.61927  0.79857  Biso   1.000  C
  C483     1.0000 0.03743  0.63480  0.84467  Biso   1.000  C
  H539     1.0000 0.04883  0.65407  0.89737  Biso   1.000  H
  C484     1.0000 0.00253  0.62207  0.81387  Biso   1.000  C
  C485     1.0000 0.98588  0.59387  0.73677  Biso   1.000  C
  H540     1.0000 0.96203  0.58517  0.71567  Biso   1.000  H
  C486     1.0000 0.09503  0.63557  0.83567  Biso   1.000  C
  C487     1.0000 0.10173  0.60867  0.89597  Biso   1.000  C
  H541     1.0000 0.08693  0.59977  0.96647  Biso   1.000  H
  H542     1.0000 0.09593  0.58917  0.84177  Biso   1.000  H
  H543     1.0000 0.12653  0.61967  0.91847  Biso   1.000  H
  C488     1.0000 0.11923  0.64817  0.72547  Biso   1.000  C
  H544     1.0000 0.11603  0.66577  0.68297  Biso   1.000  H
  H545     1.0000 0.14383  0.65867  0.75037  Biso   1.000  H
  H546     1.0000 0.11323  0.62817  0.67367  Biso   1.000  H
  C489     1.0000 0.10903  0.66817  0.91887  Biso   1.000  C
  H547     1.0000 0.10513  0.68607  0.88237  Biso   1.000  H
  H548     1.0000 0.09663  0.66097  0.99437  Biso   1.000  H
  H549     1.0000 0.13423  0.67777  0.93227  Biso   1.000  H
  C490     1.0000 0.98313  0.64147  0.85387  Biso   1.000  C
  C491     1.0000 0.94663  0.62357  0.85657  Biso   1.000  C
  H550     1.0000 0.93383  0.59927  0.83757  Biso   1.000  H
  C492     1.0000 0.92893  0.64117  0.88717  Biso   1.000  C
  H551     1.0000 0.90393  0.62887  0.88897  Biso   1.000  H
  N54      1.0000 0.94763  0.67667  0.91487  Biso   1.000  N
  C493     1.0000 0.98413  0.69467  0.91217  Biso   1.000  C
  H552     1.0000 0.99693  0.71887  0.93117  Biso   1.000  H
  C494     1.0000 0.00193  0.67707  0.88157  Biso   1.000  C
  H553     1.0000 0.02683  0.68927  0.87977  Biso   1.000  H
  C495     1.0000 0.21593  0.74117  0.87427  Biso   1.000  C
  H554     1.0000 0.21643  0.76367  0.87737  Biso   1.000  H
  H555     1.0000 0.23433  0.74307  0.82057  Biso   1.000  H
  H556     1.0000 0.19293  0.72287  0.84577  Biso   1.000  H
  N55      1.0000 0.08173  0.59924  0.41527  Biso   1.000  N
  C496     1.0000 0.08253  0.63017  0.44717  Biso   1.000  C
  H557     1.0000 0.06853  0.63017  0.51067  Biso   1.000  H
  C497     1.0000 0.10393  0.66107  0.38607  Biso   1.000  C
  H558     1.0000 0.10453  0.68217  0.40787  Biso   1.000  H
  C498     1.0000 0.12453  0.66101  0.29307  Biso   1.000  C
  C499     1.0000 0.12363  0.63007  0.26117  Biso   1.000  C
  H559     1.0000 0.13763  0.63007  0.19767  Biso   1.000  H
  C500     1.0000 0.10223  0.59918  0.32227  Biso   1.000  C
  H560     1.0000 0.10163  0.57807  0.30047  Biso   1.000  H
  C501     1.0000 0.22253  0.73147  0.99867  Biso   1.000  C
  C502     1.0000 0.14873  0.69623  0.22627  Biso   1.000  C
  C503     1.0000 0.14443  0.72497  0.24857  Biso   1.000  C
  H561     1.0000 0.12743  0.72307  0.30407  Biso   1.000  H
  C504     1.0000 0.16503  0.75643  0.18947  Biso   1.000  C
  C505     1.0000 0.18993  0.75919  0.10817  Biso   1.000  C
  C506     1.0000 0.19423  0.73047  0.08597  Biso   1.000  C
  C507     1.0000 0.17363  0.69899  0.14497  Biso   1.000  C
  H562     1.0000 0.17653  0.67937  0.12977  Biso   1.000  H
  C508     1.0000 0.22163  0.69677  0.99067  Biso   1.000  C
  H563     1.0000 0.19813  0.67847  0.96517  Biso   1.000  H
  H564     1.0000 0.23903  0.69867  0.93267  Biso   1.000  H
  H565     1.0000 0.22693  0.69067  0.06737  Biso   1.000  H
  C509     1.0000 0.25983  0.75927  0.03827  Biso   1.000  C
  H566     1.0000 0.26123  0.78217  0.04467  Biso   1.000  H
  H567     1.0000 0.26483  0.75257  0.11507  Biso   1.000  H
  H568     1.0000 0.27693  0.76067  0.98037  Biso   1.000  H
  C510     1.0000 0.16253  0.78657  0.22897  Biso   1.000  C
  H569     1.0000 0.14463  0.78167  0.28477  Biso   1.000  H
  C511     1.0000 0.17723  0.84637  0.25117  Biso   1.000  C
  H570     1.0000 0.19863  0.86067  0.30057  Biso   1.000  H
  C512     1.0000 0.14543  0.83627  0.32877  Biso   1.000  C
  H571     1.0000 0.14393  0.81987  0.39127  Biso   1.000  H
  H572     1.0000 0.12363  0.82457  0.28127  Biso   1.000  H
  C513     1.0000 0.14993  0.87017  0.38347  Biso   1.000  C
  H573     1.0000 0.17173  0.88167  0.43097  Biso   1.000  H
  H574     1.0000 0.12983  0.86457  0.43607  Biso   1.000  H
  C514     1.0000 0.15183  0.89537  0.28347  Biso   1.000  C
  H575     1.0000 0.12923  0.88447  0.24027  Biso   1.000  H
  H576     1.0000 0.15543  0.91757  0.31877  Biso   1.000  H
  C515     1.0000 0.18123  0.90347  0.19837  Biso   1.000  C
  H577     1.0000 0.20403  0.91747  0.23917  Biso   1.000  H
  H578     1.0000 0.18033  0.91787  0.13277  Biso   1.000  H
  C516     1.0000 0.17893  0.86957  0.14767  Biso   1.000  C
  H579     1.0000 0.15633  0.85657  0.10327  Biso   1.000  H
  C517     1.0000 0.21833  0.89817  0.99287  Biso   1.000  C
  H580     1.0000 0.20693  0.91157  0.98827  Biso   1.000  H
  C518     1.0000 0.24696  0.90757  0.90967  Biso   1.000  C
  C519     1.0000 0.26183  0.88700  0.88177  Biso   1.000  C
  C520     1.0000 0.29133  0.90037  0.80977  Biso   1.000  C
  C521     1.0000 0.30593  0.93437  0.76577  Biso   1.000  C
  H581     1.0000 0.32613  0.94357  0.71647  Biso   1.000  H
  C522     1.0000 0.29103  0.95490  0.79367  Biso   1.000  C
  C523     1.0000 0.26163  0.94147  0.86557  Biso   1.000  C
  H582     1.0000 0.25143  0.95557  0.88467  Biso   1.000  H
  C524     1.0000 0.30903  0.87797  0.78027  Biso   1.000  C
  C525     1.0000 0.32173  0.86907  0.89187  Biso   1.000  C
  H583     1.0000 0.30203  0.85657  0.94617  Biso   1.000  H
  H584     1.0000 0.33183  0.85427  0.87267  Biso   1.000  H
  H585     1.0000 0.33973  0.89087  0.92917  Biso   1.000  H
  C526     1.0000 0.28233  0.84467  0.71257  Biso   1.000  C
  H586     1.0000 0.27483  0.85157  0.64117  Biso   1.000  H
  H587     1.0000 0.29343  0.83087  0.69087  Biso   1.000  H
  H588     1.0000 0.26193  0.83047  0.76267  Biso   1.000  H
  C527     1.0000 0.33883  0.89767  0.69207  Biso   1.000  C
  H589     1.0000 0.32953  0.90287  0.62117  Biso   1.000  H
  H590     1.0000 0.35693  0.91967  0.72757  Biso   1.000  H
  H591     1.0000 0.34903  0.88307  0.67097  Biso   1.000  H
  C528     1.0000 0.30883  0.99389  0.75907  Biso   1.000  C
  C529     1.0000 0.29063  0.01207  0.76597  Biso   1.000  C
  H592     1.0000 0.26673  0.00027  0.79017  Biso   1.000  H
  C530     1.0000 0.30733  0.04757  0.73767  Biso   1.000  C
  H593     1.0000 0.29483  0.06007  0.74237  Biso   1.000  H
  N56      1.0000 0.34223  0.06488  0.70227  Biso   1.000  N
  C531     1.0000 0.36053  0.04667  0.69527  Biso   1.000  C
  H594     1.0000 0.38443  0.05847  0.67107  Biso   1.000  H
  C532     1.0000 0.34383  0.01117  0.72367  Biso   1.000  C
  H595     1.0000 0.35633  0.99877  0.71887  Biso   1.000  H
  Zn15     1.0000 0.44472  0.49768  0.52362  Biso   1.000  Zn
  Zn16     1.0000 0.16344  0.38536  0.07636  Biso   1.000  Zn
  O29      1.0000 0.21273  0.42137  0.04447  Biso   1.000  O
  O30      1.0000 0.14613  0.39267  0.92777  Biso   1.000  O
  O31      1.0000 0.42353  0.48117  0.68327  Biso   1.000  O
  O32      1.0000 0.45553  0.54677  0.54837  Biso   1.000  O
  N57      1.0000 0.49133  0.51867  0.43027  Biso   1.000  N
  N58      1.0000 0.44833  0.45217  0.49907  Biso   1.000  N
  N59      1.0000 0.18223  0.36297  0.19967  Biso   1.000  N
  N60      1.0000 0.12503  0.33237  0.06797  Biso   1.000  N
  N61      1.0000 0.58883  0.73447  0.18787  Biso   1.000  N
  C533     1.0000 0.58963  0.70417  0.15907  Biso   1.000  C
  H596     1.0000 0.60503  0.70477  0.09917  Biso   1.000  H
  C534     1.0000 0.56793  0.67287  0.21787  Biso   1.000  C
  H597     1.0000 0.56853  0.65217  0.19817  Biso   1.000  H
  C535     1.0000 0.54543  0.67197  0.30547  Biso   1.000  C
  C536     1.0000 0.54463  0.70227  0.33427  Biso   1.000  C
  H598     1.0000 0.52913  0.70157  0.39417  Biso   1.000  H
  C537     1.0000 0.56623  0.73347  0.27557  Biso   1.000  C
  H599     1.0000 0.56573  0.75427  0.29527  Biso   1.000  H
  C538     1.0000 0.44253  0.60287  0.58507  Biso   1.000  C
  C539     1.0000 0.52073  0.63787  0.37067  Biso   1.000  C
  C540     1.0000 0.52493  0.60870  0.35867  Biso   1.000  C
  H600     1.0000 0.54303  0.60997  0.30937  Biso   1.000  H
  C541     1.0000 0.50283  0.57789  0.41867  Biso   1.000  C
  C542     1.0000 0.47643  0.57617  0.49077  Biso   1.000  C
  C543     1.0000 0.47223  0.60527  0.50277  Biso   1.000  C
  C544     1.0000 0.49443  0.63622  0.44277  Biso   1.000  C
  H601     1.0000 0.49153  0.65607  0.45097  Biso   1.000  H
  C545     1.0000 0.44643  0.59297  0.71027  Biso   1.000  C
  H602     1.0000 0.46903  0.61087  0.74247  Biso   1.000  H
  H603     1.0000 0.42733  0.59157  0.75907  Biso   1.000  H
  H604     1.0000 0.44533  0.57017  0.70987  Biso   1.000  H
  C546     1.0000 0.40763  0.57567  0.53177  Biso   1.000  C
  H605     1.0000 0.40583  0.58277  0.45137  Biso   1.000  H
  H606     1.0000 0.40633  0.55287  0.53027  Biso   1.000  H
  H607     1.0000 0.38833  0.57417  0.57947  Biso   1.000  H
  C547     1.0000 0.44263  0.63777  0.58967  Biso   1.000  C
  H608     1.0000 0.44013  0.64467  0.50977  Biso   1.000  H
  H609     1.0000 0.42293  0.63487  0.63837  Biso   1.000  H
  H610     1.0000 0.46483  0.65597  0.62387  Biso   1.000  H
  C548     1.0000 0.51023  0.54997  0.39377  Biso   1.000  C
  H611     1.0000 0.53033  0.55537  0.34767  Biso   1.000  H
  C549     1.0000 0.50313  0.49147  0.40447  Biso   1.000  C
  H612     1.0000 0.51793  0.49147  0.47127  Biso   1.000  H
  C550     1.0000 0.52403  0.49787  0.28577  Biso   1.000  C
  H613     1.0000 0.51093  0.50117  0.22087  Biso   1.000  H
  H614     1.0000 0.54723  0.51947  0.29247  Biso   1.000  H
  C551     1.0000 0.52913  0.46707  0.25757  Biso   1.000  C
  H615     1.0000 0.53963  0.47067  0.17817  Biso   1.000  H
  H616     1.0000 0.54613  0.46697  0.31447  Biso   1.000  H
  C552     1.0000 0.49753  0.43287  0.26037  Biso   1.000  C
  H617     1.0000 0.50383  0.41437  0.24857  Biso   1.000  H
  H618     1.0000 0.48183  0.43117  0.19527  Biso   1.000  H
  C553     1.0000 0.47803  0.42657  0.37807  Biso   1.000  C
  H619     1.0000 0.45623  0.40357  0.37687  Biso   1.000  H
  H620     1.0000 0.49303  0.42657  0.44317  Biso   1.000  H
  C554     1.0000 0.46943  0.45517  0.39737  Biso   1.000  C
  H621     1.0000 0.45613  0.45557  0.32647  Biso   1.000  H
  C555     1.0000 0.44723  0.43327  0.60187  Biso   1.000  C
  H622     1.0000 0.47053  0.44637  0.63987  Biso   1.000  H
  H623     1.0000 0.44433  0.41047  0.57567  Biso   1.000  H
  C556     1.0000 0.42165  0.42581  0.69067  Biso   1.000  C
  C557     1.0000 0.40894  0.44800  0.72157  Biso   1.000  C
  C558     1.0000 0.38073  0.43642  0.79857  Biso   1.000  C
  C559     1.0000 0.36520  0.40264  0.84467  Biso   1.000  C
  H624     1.0000 0.34593  0.39477  0.89737  Biso   1.000  H
  C560     1.0000 0.37793  0.38047  0.81387  Biso   1.000  C
  C561     1.0000 0.40613  0.39202  0.73677  Biso   1.000  C
  H625     1.0000 0.41483  0.37687  0.71567  Biso   1.000  H
  C562     1.0000 0.36443  0.45947  0.83567  Biso   1.000  C
  C563     1.0000 0.39133  0.49307  0.89597  Biso   1.000  C
  H626     1.0000 0.40023  0.48717  0.96647  Biso   1.000  H
  H627     1.0000 0.41083  0.50677  0.84177  Biso   1.000  H
  H628     1.0000 0.38033  0.50687  0.91847  Biso   1.000  H
  C564     1.0000 0.35183  0.47107  0.72547  Biso   1.000  C
  H629     1.0000 0.33423  0.45027  0.68297  Biso   1.000  H
  H630     1.0000 0.34133  0.48517  0.75037  Biso   1.000  H
  H631     1.0000 0.37183  0.48507  0.67367  Biso   1.000  H
  C565     1.0000 0.33183  0.44087  0.91887  Biso   1.000  C
  H632     1.0000 0.31393  0.41907  0.88237  Biso   1.000  H
  H633     1.0000 0.33903  0.43567  0.99437  Biso   1.000  H
  H634     1.0000 0.32223  0.45647  0.93227  Biso   1.000  H
  C566     1.0000 0.35853  0.34167  0.85387  Biso   1.000  C
  C567     1.0000 0.37643  0.32307  0.85657  Biso   1.000  C
  H635     1.0000 0.40073  0.33457  0.83757  Biso   1.000  H
  C568     1.0000 0.35883  0.28777  0.88717  Biso   1.000  C
  H636     1.0000 0.37113  0.27507  0.88897  Biso   1.000  H
  N62      1.0000 0.32333  0.27097  0.91487  Biso   1.000  N
  C569     1.0000 0.30533  0.28947  0.91217  Biso   1.000  C
  H637     1.0000 0.28113  0.27807  0.93117  Biso   1.000  H
  C570     1.0000 0.32293  0.32487  0.88157  Biso   1.000  C
  H638     1.0000 0.31073  0.33757  0.87977  Biso   1.000  H
  C571     1.0000 0.25883  0.47477  0.87427  Biso   1.000  C
  H639     1.0000 0.23633  0.45277  0.87737  Biso   1.000  H
  H640     1.0000 0.25693  0.49127  0.82057  Biso   1.000  H
  H641     1.0000 0.27713  0.47007  0.84577  Biso   1.000  H
  N63      1.0000 0.40076  0.48250  0.41527  Biso   1.000  N
  C572     1.0000 0.36983  0.45237  0.44717  Biso   1.000  C
  H642     1.0000 0.36983  0.43837  0.51067  Biso   1.000  H
  C573     1.0000 0.33893  0.44287  0.38607  Biso   1.000  C
  H643     1.0000 0.31783  0.42237  0.40787  Biso   1.000  H
  C574     1.0000 0.33899  0.46353  0.29307  Biso   1.000  C
  C575     1.0000 0.36993  0.49357  0.26117  Biso   1.000  C
  H644     1.0000 0.36993  0.50757  0.19767  Biso   1.000  H
  C576     1.0000 0.40082  0.50306  0.32227  Biso   1.000  C
  H645     1.0000 0.42193  0.52357  0.30047  Biso   1.000  H
  C577     1.0000 0.26853  0.49107  0.99867  Biso   1.000  C
  C578     1.0000 0.30377  0.45251  0.22627  Biso   1.000  C
  C579     1.0000 0.27503  0.41947  0.24857  Biso   1.000  C
  H646     1.0000 0.27693  0.40437  0.30407  Biso   1.000  H
  C580     1.0000 0.24357  0.40861  0.18947  Biso   1.000  C
  C581     1.0000 0.24081  0.43075  0.10817  Biso   1.000  C
  C582     1.0000 0.26953  0.46377  0.08597  Biso   1.000  C
  C583     1.0000 0.30101  0.47465  0.14497  Biso   1.000  C
  H647     1.0000 0.32063  0.49717  0.12977  Biso   1.000  H
  C584     1.0000 0.30323  0.52487  0.99067  Biso   1.000  C
  H648     1.0000 0.32153  0.51967  0.96517  Biso   1.000  H
  H649     1.0000 0.30133  0.54037  0.93267  Biso   1.000  H
  H650     1.0000 0.30933  0.53627  0.06737  Biso   1.000  H
  C585     1.0000 0.24073  0.50057  0.03827  Biso   1.000  C
  H651     1.0000 0.21783  0.47907  0.04467  Biso   1.000  H
  H652     1.0000 0.24743  0.51227  0.11507  Biso   1.000  H
  H653     1.0000 0.23933  0.51627  0.98037  Biso   1.000  H
  C586     1.0000 0.21343  0.37597  0.22897  Biso   1.000  C
  H654     1.0000 0.21833  0.36297  0.28477  Biso   1.000  H
  C587     1.0000 0.15363  0.33087  0.25117  Biso   1.000  C
  H655     1.0000 0.13933  0.33797  0.30057  Biso   1.000  H
  C588     1.0000 0.16373  0.30917  0.32877  Biso   1.000  C
  H656     1.0000 0.18013  0.32407  0.39127  Biso   1.000  H
  H657     1.0000 0.17543  0.29907  0.28127  Biso   1.000  H
  C589     1.0000 0.12983  0.27977  0.38347  Biso   1.000  C
  H658     1.0000 0.11833  0.29007  0.43097  Biso   1.000  H
  H659     1.0000 0.13543  0.26527  0.43607  Biso   1.000  H
  C590     1.0000 0.10463  0.25647  0.28347  Biso   1.000  C
  H660     1.0000 0.11553  0.24477  0.24027  Biso   1.000  H
  H661     1.0000 0.08243  0.23787  0.31877  Biso   1.000  H
  C591     1.0000 0.09653  0.27777  0.19837  Biso   1.000  C
  H662     1.0000 0.08253  0.28657  0.23917  Biso   1.000  H
  H663     1.0000 0.08213  0.26247  0.13277  Biso   1.000  H
  C592     1.0000 0.13043  0.30937  0.14767  Biso   1.000  C
  H664     1.0000 0.14343  0.29977  0.10327  Biso   1.000  H
  C593     1.0000 0.10183  0.32017  0.99287  Biso   1.000  C
  H665     1.0000 0.08843  0.29537  0.98827  Biso   1.000  H
  C594     1.0000 0.09243  0.33940  0.90967  Biso   1.000  C
  C595     1.0000 0.11300  0.37484  0.88177  Biso   1.000  C
  C596     1.0000 0.09963  0.39097  0.80977  Biso   1.000  C
  C597     1.0000 0.06563  0.37157  0.76577  Biso   1.000  C
  H666     1.0000 0.05643  0.38257  0.71647  Biso   1.000  H
  C598     1.0000 0.04510  0.33614  0.79367  Biso   1.000  C
  C599     1.0000 0.05853  0.32017  0.86557  Biso   1.000  C
  H667     1.0000 0.04443  0.29587  0.88467  Biso   1.000  H
  C600     1.0000 0.12203  0.43107  0.78027  Biso   1.000  C
  C601     1.0000 0.13093  0.45267  0.89187  Biso   1.000  C
  H668     1.0000 0.14343  0.44547  0.94617  Biso   1.000  H
  H669     1.0000 0.14573  0.47757  0.87267  Biso   1.000  H
  H670     1.0000 0.10913  0.44887  0.92917  Biso   1.000  H
  C602     1.0000 0.15533  0.43767  0.71257  Biso   1.000  C
  H671     1.0000 0.14843  0.42327  0.64117  Biso   1.000  H
  H672     1.0000 0.16913  0.46257  0.69087  Biso   1.000  H
  H673     1.0000 0.16953  0.43147  0.76267  Biso   1.000  H
  C603     1.0000 0.10233  0.44117  0.69207  Biso   1.000  C
  H674     1.0000 0.09713  0.42667  0.62117  Biso   1.000  H
  H675     1.0000 0.08033  0.43727  0.72757  Biso   1.000  H
  H676     1.0000 0.11693  0.46597  0.67097  Biso   1.000  H
  C604     1.0000 0.00611  0.31495  0.75907  Biso   1.000  C
  C605     1.0000 0.98793  0.27857  0.76597  Biso   1.000  C
  H677     1.0000 0.99973  0.26647  0.79017  Biso   1.000  H
  C606     1.0000 0.95243  0.25977  0.73767  Biso   1.000  C
  H678     1.0000 0.93993  0.23477  0.74237  Biso   1.000  H
  N64      1.0000 0.93512  0.27736  0.70227  Biso   1.000  N
  C607     1.0000 0.95333  0.31387  0.69527  Biso   1.000  C
  H679     1.0000 0.94153  0.32597  0.67107  Biso   1.000  H
  C608     1.0000 0.98883  0.33267  0.72367  Biso   1.000  C
  H680     1.0000 0.00123  0.35757  0.71887  Biso   1.000  H
  Zn17     1.0000 0.50232  0.94705  0.52362  Biso   1.000  Zn
  Zn18     1.0000 0.61464  0.77809  0.07636  Biso   1.000  Zn
  O33      1.0000 0.57863  0.79137  0.04447  Biso   1.000  O
  O34      1.0000 0.60733  0.75347  0.92777  Biso   1.000  O
  O35      1.0000 0.51883  0.94237  0.68327  Biso   1.000  O
  O36      1.0000 0.45323  0.90877  0.54837  Biso   1.000  O
  N65      1.0000 0.48133  0.97267  0.43027  Biso   1.000  N
  N66      1.0000 0.54783  0.99617  0.49907  Biso   1.000  N
  N67      1.0000 0.63703  0.81927  0.19967  Biso   1.000  N
  N68      1.0000 0.66763  0.79267  0.06797  Biso   1.000  N
  N69      1.0000 0.26553  0.85437  0.18787  Biso   1.000  N
  C609     1.0000 0.29583  0.88547  0.15907  Biso   1.000  C
  H681     1.0000 0.29523  0.90027  0.09917  Biso   1.000  H
  C610     1.0000 0.32713  0.89507  0.21787  Biso   1.000  C
  H682     1.0000 0.34783  0.91637  0.19817  Biso   1.000  H
  C611     1.0000 0.32803  0.87347  0.30547  Biso   1.000  C
  C612     1.0000 0.29773  0.84237  0.33427  Biso   1.000  C
  H683     1.0000 0.29843  0.82757  0.39417  Biso   1.000  H
  C613     1.0000 0.26653  0.83277  0.27557  Biso   1.000  C
  H684     1.0000 0.24573  0.81147  0.29527  Biso   1.000  H
  C614     1.0000 0.39713  0.83967  0.58507  Biso   1.000  C
  C615     1.0000 0.36213  0.88287  0.37067  Biso   1.000  C
  C616     1.0000 0.39130  0.91624  0.35867  Biso   1.000  C
  H685     1.0000 0.39003  0.93307  0.30937  Biso   1.000  H
  C617     1.0000 0.42211  0.92495  0.41867  Biso   1.000  C
  C618     1.0000 0.42383  0.90027  0.49077  Biso   1.000  C
  C619     1.0000 0.39473  0.86697  0.50277  Biso   1.000  C
  C620     1.0000 0.36378  0.85822  0.44277  Biso   1.000  C
  H686     1.0000 0.34393  0.83547  0.45097  Biso   1.000  H
  C621     1.0000 0.40703  0.85347  0.71027  Biso   1.000  C
  H687     1.0000 0.38913  0.85817  0.74247  Biso   1.000  H
  H688     1.0000 0.40843  0.83577  0.75907  Biso   1.000  H
  H689     1.0000 0.42983  0.87517  0.70987  Biso   1.000  H
  C622     1.0000 0.42433  0.83197  0.53177  Biso   1.000  C
  H690     1.0000 0.41723  0.82307  0.45137  Biso   1.000  H
  H691     1.0000 0.44713  0.85347  0.53027  Biso   1.000  H
  H692     1.0000 0.42583  0.81417  0.57947  Biso   1.000  H
  C623     1.0000 0.36223  0.80487  0.58967  Biso   1.000  C
  H693     1.0000 0.35533  0.79547  0.50977  Biso   1.000  H
  H694     1.0000 0.36513  0.78807  0.63837  Biso   1.000  H
  H695     1.0000 0.34403  0.80887  0.62387  Biso   1.000  H
  C624     1.0000 0.45003  0.96027  0.39377  Biso   1.000  C
  H696     1.0000 0.44463  0.97497  0.34767  Biso   1.000  H
  C625     1.0000 0.50853  0.01167  0.40447  Biso   1.000  C
  H697     1.0000 0.50853  0.02647  0.47127  Biso   1.000  H
  C626     1.0000 0.50213  0.02617  0.28577  Biso   1.000  C
  H698     1.0000 0.49883  0.00977  0.22087  Biso   1.000  H
  H699     1.0000 0.48053  0.02777  0.29247  Biso   1.000  H
  C627     1.0000 0.53293  0.06207  0.25757  Biso   1.000  C
  H700     1.0000 0.52933  0.06897  0.17817  Biso   1.000  H
  H701     1.0000 0.53303  0.07917  0.31447  Biso   1.000  H
  C628     1.0000 0.56713  0.06467  0.26037  Biso   1.000  C
  H702     1.0000 0.58563  0.08947  0.24857  Biso   1.000  H
  H703     1.0000 0.56883  0.05067  0.19527  Biso   1.000  H
  C629     1.0000 0.57343  0.05147  0.37807  Biso   1.000  C
  H704     1.0000 0.59643  0.05267  0.37687  Biso   1.000  H
  H705     1.0000 0.57343  0.06647  0.44317  Biso   1.000  H
  C630     1.0000 0.54483  0.01427  0.39737  Biso   1.000  C
  H706     1.0000 0.54443  0.00057  0.32647  Biso   1.000  H
  C631     1.0000 0.56673  0.01397  0.60187  Biso   1.000  C
  H707     1.0000 0.55363  0.02417  0.63987  Biso   1.000  H
  H708     1.0000 0.58953  0.03387  0.57567  Biso   1.000  H
  C632     1.0000 0.57419  0.99585  0.69067  Biso   1.000  C
  C633     1.0000 0.55200  0.96095  0.72157  Biso   1.000  C
  C634     1.0000 0.56358  0.94432  0.79857  Biso   1.000  C
  C635     1.0000 0.59736  0.96257  0.84467  Biso   1.000  C
  H709     1.0000 0.60523  0.95117  0.89737  Biso   1.000  H
  C636     1.0000 0.61953  0.99747  0.81387  Biso   1.000  C
  C637     1.0000 0.60798  0.01412  0.73677  Biso   1.000  C
  H710     1.0000 0.62313  0.03797  0.71567  Biso   1.000  H
  C638     1.0000 0.54053  0.90497  0.83567  Biso   1.000  C
  C639     1.0000 0.50693  0.89827  0.89597  Biso   1.000  C
  H711     1.0000 0.51283  0.91307  0.96647  Biso   1.000  H
  H712     1.0000 0.49323  0.90407  0.84177  Biso   1.000  H
  H713     1.0000 0.49313  0.87347  0.91847  Biso   1.000  H
  C640     1.0000 0.52893  0.88077  0.72547  Biso   1.000  C
  H714     1.0000 0.54973  0.88397  0.68297  Biso   1.000  H
  H715     1.0000 0.51483  0.85617  0.75037  Biso   1.000  H
  H716     1.0000 0.51493  0.88677  0.67367  Biso   1.000  H
  C641     1.0000 0.55913  0.89097  0.91887  Biso   1.000  C
  H717     1.0000 0.58093  0.89487  0.88237  Biso   1.000  H
  H718     1.0000 0.56433  0.90337  0.99437  Biso   1.000  H
  H719     1.0000 0.54353  0.86577  0.93227  Biso   1.000  H
  C642     1.0000 0.65833  0.01687  0.85387  Biso   1.000  C
  C643     1.0000 0.67693  0.05337  0.85657  Biso   1.000  C
  H720     1.0000 0.66543  0.06617  0.83757  Biso   1.000  H
  C644     1.0000 0.71223  0.07107  0.88717  Biso   1.000  C
  H721     1.0000 0.72493  0.09607  0.88897  Biso   1.000  H
  N70      1.0000 0.72903  0.05237  0.91487  Biso   1.000  N
  C645     1.0000 0.71053  0.01587  0.91217  Biso   1.000  C
  H722     1.0000 0.72193  0.00307  0.93117  Biso   1.000  H
  C646     1.0000 0.67513  0.99807  0.88157  Biso   1.000  C
  H723     1.0000 0.66243  0.97317  0.87977  Biso   1.000  H
  C647     1.0000 0.52523  0.78407  0.87427  Biso   1.000  C
  H724     1.0000 0.54723  0.78357  0.87737  Biso   1.000  H
  H725     1.0000 0.50873  0.76567  0.82057  Biso   1.000  H
  H726     1.0000 0.52993  0.80707  0.84577  Biso   1.000  H
  N71      1.0000 0.51750  0.91827  0.41527  Biso   1.000  N
  C648     1.0000 0.54763  0.91747  0.44717  Biso   1.000  C
  H727     1.0000 0.56163  0.93147  0.51067  Biso   1.000  H
  C649     1.0000 0.55713  0.89607  0.38607  Biso   1.000  C
  H728     1.0000 0.57763  0.89547  0.40787  Biso   1.000  H
  C650     1.0000 0.53647  0.87547  0.29307  Biso   1.000  C
  C651     1.0000 0.50643  0.87637  0.26117  Biso   1.000  C
  H729     1.0000 0.49243  0.86237  0.19767  Biso   1.000  H
  C652     1.0000 0.49694  0.89777  0.32227  Biso   1.000  C
  H730     1.0000 0.47643  0.89837  0.30047  Biso   1.000  H
  C653     1.0000 0.50893  0.77747  0.99867  Biso   1.000  C
  C654     1.0000 0.54749  0.85127  0.22627  Biso   1.000  C
  C655     1.0000 0.58053  0.85557  0.24857  Biso   1.000  C
  H731     1.0000 0.59563  0.87257  0.30407  Biso   1.000  H
  C656     1.0000 0.59139  0.83497  0.18947  Biso   1.000  C
  C657     1.0000 0.56925  0.81007  0.10817  Biso   1.000  C
  C658     1.0000 0.53623  0.80577  0.08597  Biso   1.000  C
  C659     1.0000 0.52535  0.82637  0.14497  Biso   1.000  C
  H732     1.0000 0.50283  0.82347  0.12977  Biso   1.000  H
  C660     1.0000 0.47513  0.77837  0.99067  Biso   1.000  C
  H733     1.0000 0.48033  0.80187  0.96517  Biso   1.000  H
  H734     1.0000 0.45963  0.76097  0.93267  Biso   1.000  H
  H735     1.0000 0.46373  0.77307  0.06737  Biso   1.000  H
  C661     1.0000 0.49943  0.74017  0.03827  Biso   1.000  C
  H736     1.0000 0.52093  0.73877  0.04467  Biso   1.000  H
  H737     1.0000 0.48773  0.73517  0.11507  Biso   1.000  H
  H738     1.0000 0.48373  0.72307  0.98037  Biso   1.000  H
  C662     1.0000 0.62403  0.83747  0.22897  Biso   1.000  C
  H739     1.0000 0.63703  0.85537  0.28477  Biso   1.000  H
  C663     1.0000 0.66913  0.82277  0.25117  Biso   1.000  C
  H740     1.0000 0.66203  0.80137  0.30057  Biso   1.000  H
  C664     1.0000 0.69083  0.85457  0.32877  Biso   1.000  C
  H741     1.0000 0.67593  0.85607  0.39127  Biso   1.000  H
  H742     1.0000 0.70093  0.87637  0.28127  Biso   1.000  H
  C665     1.0000 0.72023  0.85007  0.38347  Biso   1.000  C
  H743     1.0000 0.70993  0.82827  0.43097  Biso   1.000  H
  H744     1.0000 0.73473  0.87017  0.43607  Biso   1.000  H
  C666     1.0000 0.74353  0.84817  0.28347  Biso   1.000  C
  H745     1.0000 0.75523  0.87077  0.24027  Biso   1.000  H
  H746     1.0000 0.76213  0.84457  0.31877  Biso   1.000  H
  C667     1.0000 0.72223  0.81877  0.19837  Biso   1.000  C
  H747     1.0000 0.71343  0.79597  0.23917  Biso   1.000  H
  H748     1.0000 0.73753  0.81967  0.13277  Biso   1.000  H
  C668     1.0000 0.69063  0.82107  0.14767  Biso   1.000  C
  H749     1.0000 0.70023  0.84367  0.10327  Biso   1.000  H
  C669     1.0000 0.67983  0.78167  0.99287  Biso   1.000  C
  H750     1.0000 0.70463  0.79307  0.98827  Biso   1.000  H
  C670     1.0000 0.66060  0.75304  0.90967  Biso   1.000  C
  C671     1.0000 0.62516  0.73817  0.88177  Biso   1.000  C
  C672     1.0000 0.60903  0.70867  0.80977  Biso   1.000  C
  C673     1.0000 0.62843  0.69407  0.76577  Biso   1.000  C
  H751     1.0000 0.61743  0.67387  0.71647  Biso   1.000  H
  C674     1.0000 0.66386  0.70897  0.79367  Biso   1.000  C
  C675     1.0000 0.67983  0.73837  0.86557  Biso   1.000  C
  H752     1.0000 0.70413  0.74857  0.88467  Biso   1.000  H
  C676     1.0000 0.56893  0.69097  0.78027  Biso   1.000  C
  C677     1.0000 0.54733  0.67827  0.89187  Biso   1.000  C
  H753     1.0000 0.55453  0.69797  0.94617  Biso   1.000  H
  H754     1.0000 0.52243  0.66817  0.87267  Biso   1.000  H
  H755     1.0000 0.55113  0.66027  0.92917  Biso   1.000  H
  C678     1.0000 0.56233  0.71767  0.71257  Biso   1.000  C
  H756     1.0000 0.57673  0.72517  0.64117  Biso   1.000  H
  H757     1.0000 0.53743  0.70657  0.69087  Biso   1.000  H
  H758     1.0000 0.56853  0.73807  0.76267  Biso   1.000  H
  C679     1.0000 0.55883  0.66117  0.69207  Biso   1.000  C
  H759     1.0000 0.57333  0.67047  0.62117  Biso   1.000  H
  H760     1.0000 0.56273  0.64307  0.72757  Biso   1.000  H
  H761     1.0000 0.53403  0.65097  0.67097  Biso   1.000  H
  C680     1.0000 0.68505  0.69117  0.75907  Biso   1.000  C
  C681     1.0000 0.72143  0.70937  0.76597  Biso   1.000  C
  H762     1.0000 0.73353  0.73327  0.79017  Biso   1.000  H
  C682     1.0000 0.74023  0.69267  0.73767  Biso   1.000  C
  H763     1.0000 0.76523  0.70517  0.74237  Biso   1.000  H
  N72      1.0000 0.72264  0.65777  0.70227  Biso   1.000  N
  C683     1.0000 0.68613  0.63947  0.69527  Biso   1.000  C
  H764     1.0000 0.67403  0.61557  0.67107  Biso   1.000  H
  C684     1.0000 0.66733  0.65617  0.72367  Biso   1.000  C
  H765     1.0000 0.64243  0.64367  0.71887  Biso   1.000  H
