data_image0
_cell_length_a       43.6574
_cell_length_b       43.6574
_cell_length_c       11.5213
_cell_angle_alpha    90
_cell_angle_beta     90
_cell_angle_gamma    120

_symmetry_space_group_name_H-M    "P 1"
_symmetry_int_tables_number       1

loop_
  _symmetry_equiv_pos_as_xyz
  'x, y, z'

loop_
  _atom_site_label
  _atom_site_occupancy
  _atom_site_fract_x
  _atom_site_fract_y
  _atom_site_fract_z
  _atom_site_thermal_displace_type
  _atom_site_B_iso_or_equiv
  _atom_site_type_symbol
  Zn1      1.0000 0.88860  0.71629  0.17686  Biso   1.000  Zn
  Zn2      1.0000 0.71234  0.82537  0.59468  Biso   1.000  Zn
  N1       1.0000 0.88820  0.66690  0.20250  Biso   1.000  N
  N2       1.0000 0.84230  0.68910  0.27190  Biso   1.000  N
  N3       1.0000 0.65940  0.78220  0.58220  Biso   1.000  N
  O1       1.0000 0.90430  0.71990  0.01400  Biso   1.000  O
  O2       1.0000 0.87900  0.75570  0.15620  Biso   1.000  O
  O3       1.0000 0.74980  0.87540  0.62870  Biso   1.000  O
  O4       1.0000 0.71750  0.81100  0.74900  Biso   1.000  O
  N4       1.0000 0.00620  0.61050  0.78050  Biso   1.000  N
  C1       1.0000 0.02350  0.64710  0.77330  Biso   1.000  C
  H1       1.0000 0.04710  0.65980  0.74510  Biso   1.000  H
  C2       1.0000 0.00640  0.66530  0.80740  Biso   1.000  C
  H2       1.0000 0.01830  0.69030  0.80250  Biso   1.000  H
  C3       1.0000 0.97190  0.64670  0.84870  Biso   1.000  C
  C4       1.0000 0.95450  0.61000  0.85590  Biso   1.000  C
  H3       1.0000 0.93090  0.59730  0.88410  Biso   1.000  H
  C5       1.0000 0.97160  0.59190  0.82180  Biso   1.000  C
  H4       1.0000 0.95980  0.56680  0.82670  Biso   1.000  H
  C6       1.0000 0.96670  0.75990  0.87060  Biso   1.000  C
  C7       1.0000 0.95370  0.66690  0.88980  Biso   1.000  C
  C8       1.0000 0.92440  0.64990  0.96210  Biso   1.000  C
  H5       1.0000 0.91550  0.62580  0.98270  Biso   1.000  H
  C9       1.0000 0.90820  0.66810  0.00430  Biso   1.000  C
  C10      1.0000 0.92130  0.70330  0.97420  Biso   1.000  C
  C11      1.0000 0.95060  0.72030  0.90190  Biso   1.000  C
  C12      1.0000 0.96680  0.70210  0.85970  Biso   1.000  C
  H6       1.0000 0.98680  0.71380  0.81030  Biso   1.000  H
  C13      1.0000 0.98210  0.78430  0.97900  Biso   1.000  C
  H7       1.0000 0.96340  0.77730  0.03760  Biso   1.000  H
  H8       1.0000 0.00160  0.78200  0.01150  Biso   1.000  H
  H9       1.0000 0.99080  0.80900  0.95620  Biso   1.000  H
  C14      1.0000 0.93950  0.76620  0.80430  Biso   1.000  C
  H10      1.0000 0.91800  0.75770  0.85120  Biso   1.000  H
  H11      1.0000 0.94960  0.79160  0.78930  Biso   1.000  H
  H12      1.0000 0.93360  0.75340  0.73040  Biso   1.000  H
  C15      1.0000 0.99870  0.77420  0.78920  Biso   1.000  C
  H13      1.0000 0.00740  0.79930  0.77350  Biso   1.000  H
  H14      1.0000 0.01750  0.77150  0.82590  Biso   1.000  H
  H15      1.0000 0.99170  0.76090  0.71610  Biso   1.000  H
  C16      1.0000 0.87790  0.64810  0.08940  Biso   1.000  C
  H16      1.0000 0.85610  0.64710  0.06000  Biso   1.000  H
  H17      1.0000 0.87310  0.62350  0.09880  Biso   1.000  H
  C17      1.0000 0.86330  0.64860  0.30320  Biso   1.000  C
  H18      1.0000 0.87620  0.66220  0.37390  Biso   1.000  H
  C18      1.0000 0.85620  0.61130  0.32290  Biso   1.000  C
  H19      1.0000 0.87860  0.61080  0.32430  Biso   1.000  H
  H20      1.0000 0.84090  0.59530  0.26080  Biso   1.000  H
  C19      1.0000 0.83720  0.60000  0.44260  Biso   1.000  C
  H21      1.0000 0.83320  0.57620  0.46300  Biso   1.000  H
  H22      1.0000 0.85260  0.61680  0.50300  Biso   1.000  H
  C20      1.0000 0.80330  0.59920  0.44140  Biso   1.000  C
  H23      1.0000 0.79200  0.59220  0.51880  Biso   1.000  H
  H24      1.0000 0.78720  0.58160  0.38390  Biso   1.000  H
  C21      1.0000 0.80960  0.63590  0.40960  Biso   1.000  C
  H25      1.0000 0.82200  0.65220  0.47480  Biso   1.000  H
  H26      1.0000 0.78640  0.63450  0.40040  Biso   1.000  H
  C22      1.0000 0.83160  0.65190  0.29620  Biso   1.000  C
  H27      1.0000 0.81700  0.63730  0.22930  Biso   1.000  H
  C23      1.0000 0.82910  0.73760  0.27990  Biso   1.000  C
  C24      1.0000 0.80620  0.74660  0.33410  Biso   1.000  C
  H28      1.0000 0.78800  0.73000  0.38330  Biso   1.000  H
  C25      1.0000 0.81000  0.77980  0.31630  Biso   1.000  C
  C26      1.0000 0.83670  0.80400  0.24430  Biso   1.000  C
  H29      1.0000 0.83930  0.82670  0.23210  Biso   1.000  H
  C27      1.0000 0.85960  0.79510  0.19000  Biso   1.000  C
  C28      1.0000 0.85580  0.76190  0.20780  Biso   1.000  C
  C29      1.0000 0.88840  0.82240  0.11240  Biso   1.000  C
  C30      1.0000 0.88480  0.80870  0.98070  Biso   1.000  C
  H30      1.0000 0.86150  0.80260  0.95040  Biso   1.000  H
  H31      1.0000 0.90320  0.82740  0.93290  Biso   1.000  H
  H32      1.0000 0.88750  0.78770  0.97890  Biso   1.000  H
  C31      1.0000 0.92420  0.83210  0.16300  Biso   1.000  C
  H33      1.0000 0.94290  0.84970  0.11280  Biso   1.000  H
  H34      1.0000 0.92640  0.84190  0.24060  Biso   1.000  H
  H35      1.0000 0.92650  0.81090  0.16680  Biso   1.000  H
  C32      1.0000 0.88570  0.85630  0.10250  Biso   1.000  C
  H36      1.0000 0.86260  0.85030  0.07010  Biso   1.000  H
  H37      1.0000 0.88820  0.86680  0.17960  Biso   1.000  H
  H38      1.0000 0.90440  0.87330  0.05150  Biso   1.000  H
  C33      1.0000 0.78370  0.78860  0.38140  Biso   1.000  C
  C34      1.0000 0.75820  0.76540  0.45840  Biso   1.000  C
  H39      1.0000 0.75580  0.74280  0.47280  Biso   1.000  H
  C35      1.0000 0.73610  0.77500  0.51440  Biso   1.000  C
  H40      1.0000 0.71860  0.75910  0.56710  Biso   1.000  H
  N5       1.0000 0.73950  0.80800  0.49340  Biso   1.000  N
  C36      1.0000 0.76510  0.83120  0.41630  Biso   1.000  C
  H41      1.0000 0.76750  0.85380  0.40190  Biso   1.000  H
  C37      1.0000 0.78720  0.82160  0.36030  Biso   1.000  C
  H42      1.0000 0.80470  0.83750  0.30760  Biso   1.000  H
  C38      1.0000 0.81850  0.93200  0.68520  Biso   1.000  C
  N6       1.0000 0.81170  0.06610  0.27680  Biso   1.000  N
  C39      1.0000 0.83230  0.06540  0.36760  Biso   1.000  C
  H43      1.0000 0.85330  0.08630  0.38930  Biso   1.000  H
  C40      1.0000 0.82210  0.03390  0.42670  Biso   1.000  C
  H44      1.0000 0.83620  0.03350  0.48870  Biso   1.000  H
  C41      1.0000 0.79140  0.00330  0.39490  Biso   1.000  C
  C42      1.0000 0.77080  0.00400  0.30410  Biso   1.000  C
  H45      1.0000 0.74980  0.98300  0.28240  Biso   1.000  H
  C43      1.0000 0.78090  0.03540  0.24510  Biso   1.000  C
  H46      1.0000 0.76690  0.03590  0.18300  Biso   1.000  H
  C44      1.0000 0.79980  0.91940  0.80250  Biso   1.000  C
  H47      1.0000 0.79340  0.93650  0.83180  Biso   1.000  H
  H48      1.0000 0.77840  0.89630  0.79300  Biso   1.000  H
  H49      1.0000 0.81570  0.91730  0.85790  Biso   1.000  H
  C45      1.0000 0.77960  0.96870  0.46180  Biso   1.000  C
  C46      1.0000 0.74690  0.93920  0.43810  Biso   1.000  C
  H50      1.0000 0.73140  0.94070  0.38380  Biso   1.000  H
  C47      1.0000 0.73700  0.90730  0.49380  Biso   1.000  C
  C48      1.0000 0.75970  0.90500  0.57320  Biso   1.000  C
  C49      1.0000 0.79240  0.93460  0.59690  Biso   1.000  C
  C50      1.0000 0.80230  0.96640  0.54120  Biso   1.000  C
  H51      1.0000 0.82460  0.98660  0.55740  Biso   1.000  H
  C51      1.0000 0.82780  0.90520  0.64360  Biso   1.000  C
  H52      1.0000 0.80620  0.88240  0.63300  Biso   1.000  H
  H53      1.0000 0.84050  0.91300  0.56960  Biso   1.000  H
  H54      1.0000 0.84300  0.90270  0.70110  Biso   1.000  H
  C52      1.0000 0.85300  0.96710  0.70070  Biso   1.000  C
  H55      1.0000 0.84770  0.98520  0.72790  Biso   1.000  H
  H56      1.0000 0.86800  0.96410  0.75770  Biso   1.000  H
  H57      1.0000 0.86540  0.97450  0.62620  Biso   1.000  H
  C53      1.0000 0.70290  0.87730  0.45040  Biso   1.000  C
  H58      1.0000 0.68810  0.88280  0.40520  Biso   1.000  H
  C54      1.0000 0.65950  0.81710  0.41430  Biso   1.000  C
  H59      1.0000 0.66660  0.80350  0.36190  Biso   1.000  H
  C55      1.0000 0.63780  0.82800  0.34230  Biso   1.000  C
  H60      1.0000 0.62900  0.84040  0.39250  Biso   1.000  H
  H61      1.0000 0.65300  0.84480  0.28170  Biso   1.000  H
  C56      1.0000 0.60770  0.79780  0.28700  Biso   1.000  C
  H62      1.0000 0.61660  0.78770  0.22790  Biso   1.000  H
  H63      1.0000 0.59310  0.80600  0.24690  Biso   1.000  H
  C57      1.0000 0.58380  0.76790  0.37880  Biso   1.000  C
  H64      1.0000 0.57050  0.77620  0.42630  Biso   1.000  H
  H65      1.0000 0.56640  0.74640  0.33650  Biso   1.000  H
  C58      1.0000 0.60420  0.75880  0.45420  Biso   1.000  C
  H66      1.0000 0.61300  0.74540  0.40920  Biso   1.000  H
  H67      1.0000 0.58870  0.74310  0.51640  Biso   1.000  H
  C59      1.0000 0.63620  0.79130  0.51030  Biso   1.000  C
  H68      1.0000 0.62710  0.80360  0.56110  Biso   1.000  H
  C60      1.0000 0.64340  0.76670  0.69810  Biso   1.000  C
  H69      1.0000 0.64070  0.78460  0.74300  Biso   1.000  H
  H70      1.0000 0.61950  0.74610  0.68580  Biso   1.000  H
  C61      1.0000 0.66460  0.75550  0.76630  Biso   1.000  C
  C62      1.0000 0.70030  0.77710  0.79140  Biso   1.000  C
  C63      1.0000 0.71784  0.76450  0.85950  Biso   1.000  C
  C64      1.0000 0.69970  0.73010  0.90230  Biso   1.000  C
  H71      1.0000 0.71170  0.72150  0.94880  Biso   1.000  H
  C65      1.0000 0.66400  0.70844  0.87710  Biso   1.000  C
  C66      1.0000 0.64648  0.72110  0.80910  Biso   1.000  C
  H72      1.0000 0.62210  0.70630  0.79190  Biso   1.000  H
  C67      1.0000 0.75820  0.78780  0.89100  Biso   1.000  C
  C68      1.0000 0.82300  0.70370  0.29620  Biso   1.000  C
  H73      1.0000 0.80090  0.68800  0.33120  Biso   1.000  H
  C69      1.0000 0.76540  0.82210  0.95320  Biso   1.000  C
  H74      1.0000 0.75640  0.83450  0.90570  Biso   1.000  H
  H75      1.0000 0.75350  0.81620  0.02870  Biso   1.000  H
  H76      1.0000 0.79090  0.83730  0.96470  Biso   1.000  H
  C70      1.0000 0.78090  0.80220  0.78100  Biso   1.000  C
  H77      1.0000 0.77190  0.81440  0.73290  Biso   1.000  H
  H78      1.0000 0.80550  0.81870  0.80270  Biso   1.000  H
  H79      1.0000 0.77990  0.78250  0.73680  Biso   1.000  H
  C71      1.0000 0.77230  0.76880  0.96560  Biso   1.000  C
  H80      1.0000 0.75780  0.75960  0.03580  Biso   1.000  H
  H81      1.0000 0.77130  0.74910  0.92160  Biso   1.000  H
  H82      1.0000 0.79690  0.78530  0.98740  Biso   1.000  H
  C72      1.0000 0.64400  0.66840  0.91780  Biso   1.000  C
  C73      1.0000 0.60750  0.64870  0.90350  Biso   1.000  C
  H83      1.0000 0.59510  0.65950  0.87160  Biso   1.000  H
  C74      1.0000 0.58920  0.61330  0.93590  Biso   1.000  C
  H84      1.0000 0.56430  0.59990  0.92620  Biso   1.000  H
  N7       1.0000 0.60740  0.59760  0.98260  Biso   1.000  N
  C75      1.0000 0.64390  0.61740  0.99690  Biso   1.000  C
  H85      1.0000 0.65630  0.60660  0.02880  Biso   1.000  H
  C76      1.0000 0.66210  0.65280  0.96450  Biso   1.000  C
  H86      1.0000 0.68710  0.66620  0.97420  Biso   1.000  H
  N8       1.0000 0.69250  0.84520  0.46980  Biso   1.000  N
  Zn3      1.0000 0.28371  0.17231  0.17686  Biso   1.000  Zn
  Zn4      1.0000 0.17463  0.88697  0.59468  Biso   1.000  Zn
  N9       1.0000 0.33310  0.22130  0.20250  Biso   1.000  N
  N10      1.0000 0.31090  0.15320  0.27190  Biso   1.000  N
  N11      1.0000 0.21780  0.87720  0.58220  Biso   1.000  N
  O5       1.0000 0.28010  0.18440  0.01400  Biso   1.000  O
  O6       1.0000 0.24430  0.12330  0.15620  Biso   1.000  O
  O7       1.0000 0.12460  0.87440  0.62870  Biso   1.000  O
  O8       1.0000 0.18900  0.90650  0.74900  Biso   1.000  O
  N12      1.0000 0.38950  0.39570  0.78050  Biso   1.000  N
  C77      1.0000 0.35290  0.37640  0.77330  Biso   1.000  C
  H87      1.0000 0.34020  0.38730  0.74510  Biso   1.000  H
  C78      1.0000 0.33470  0.34110  0.80740  Biso   1.000  C
  H88      1.0000 0.30970  0.32800  0.80250  Biso   1.000  H
  C79      1.0000 0.35330  0.32520  0.84870  Biso   1.000  C
  C80      1.0000 0.39000  0.34450  0.85590  Biso   1.000  C
  H89      1.0000 0.40270  0.33360  0.88410  Biso   1.000  H
  C81      1.0000 0.40810  0.37970  0.82180  Biso   1.000  C
  H90      1.0000 0.43320  0.39300  0.82670  Biso   1.000  H
  C82      1.0000 0.24010  0.20680  0.87060  Biso   1.000  C
  C83      1.0000 0.33310  0.28680  0.88980  Biso   1.000  C
  C84      1.0000 0.35010  0.27450  0.96210  Biso   1.000  C
  H91      1.0000 0.37420  0.28970  0.98270  Biso   1.000  H
  C85      1.0000 0.33190  0.24010  0.00430  Biso   1.000  C
  C86      1.0000 0.29670  0.21800  0.97420  Biso   1.000  C
  C87      1.0000 0.27970  0.23030  0.90190  Biso   1.000  C
  C88      1.0000 0.29790  0.26470  0.85970  Biso   1.000  C
  H92      1.0000 0.28620  0.27300  0.81030  Biso   1.000  H
  C89      1.0000 0.21570  0.19780  0.97900  Biso   1.000  C
  H93      1.0000 0.22270  0.18610  0.03760  Biso   1.000  H
  H94      1.0000 0.21800  0.21960  0.01150  Biso   1.000  H
  H95      1.0000 0.19100  0.18180  0.95620  Biso   1.000  H
  C90      1.0000 0.23380  0.17330  0.80430  Biso   1.000  C
  H96      1.0000 0.24230  0.16030  0.85120  Biso   1.000  H
  H97      1.0000 0.20840  0.15800  0.78930  Biso   1.000  H
  H98      1.0000 0.24660  0.18020  0.73040  Biso   1.000  H
  C91      1.0000 0.22580  0.22450  0.78920  Biso   1.000  C
  H99      1.0000 0.20070  0.20810  0.77350  Biso   1.000  H
  H100     1.0000 0.22850  0.24600  0.82590  Biso   1.000  H
  H101     1.0000 0.23910  0.23080  0.71610  Biso   1.000  H
  C92      1.0000 0.35190  0.22980  0.08940  Biso   1.000  C
  H102     1.0000 0.35290  0.20900  0.06000  Biso   1.000  H
  H103     1.0000 0.37650  0.24960  0.09880  Biso   1.000  H
  C93      1.0000 0.35140  0.21470  0.30320  Biso   1.000  C
  H104     1.0000 0.33780  0.21400  0.37390  Biso   1.000  H
  C94      1.0000 0.38870  0.24490  0.32290  Biso   1.000  C
  H105     1.0000 0.38920  0.26780  0.32430  Biso   1.000  H
  H106     1.0000 0.40470  0.24560  0.26080  Biso   1.000  H
  C95      1.0000 0.40000  0.23720  0.44260  Biso   1.000  C
  H107     1.0000 0.42380  0.25700  0.46300  Biso   1.000  H
  H108     1.0000 0.38320  0.23580  0.50300  Biso   1.000  H
  C96      1.0000 0.40080  0.20410  0.44140  Biso   1.000  C
  H109     1.0000 0.40780  0.19980  0.51880  Biso   1.000  H
  H110     1.0000 0.41840  0.20560  0.38390  Biso   1.000  H
  C97      1.0000 0.36410  0.17370  0.40960  Biso   1.000  C
  H111     1.0000 0.34780  0.16980  0.47480  Biso   1.000  H
  H112     1.0000 0.36550  0.15190  0.40040  Biso   1.000  H
  C98      1.0000 0.34810  0.17970  0.29620  Biso   1.000  C
  H113     1.0000 0.36270  0.17970  0.22930  Biso   1.000  H
  C99      1.0000 0.26240  0.09150  0.27990  Biso   1.000  C
  C100     1.0000 0.25340  0.05960  0.33410  Biso   1.000  C
  H114     1.0000 0.27000  0.05800  0.38330  Biso   1.000  H
  C101     1.0000 0.22020  0.03020  0.31630  Biso   1.000  C
  C102     1.0000 0.19600  0.03270  0.24430  Biso   1.000  C
  H115     1.0000 0.17330  0.01260  0.23210  Biso   1.000  H
  C103     1.0000 0.20490  0.06450  0.19000  Biso   1.000  C
  C104     1.0000 0.23810  0.09390  0.20780  Biso   1.000  C
  C105     1.0000 0.17760  0.06600  0.11240  Biso   1.000  C
  C106     1.0000 0.19130  0.07610  0.98070  Biso   1.000  C
  H116     1.0000 0.19740  0.05890  0.95040  Biso   1.000  H
  H117     1.0000 0.17260  0.07580  0.93290  Biso   1.000  H
  H118     1.0000 0.21230  0.09980  0.97890  Biso   1.000  H
  C107     1.0000 0.16790  0.09210  0.16300  Biso   1.000  C
  H119     1.0000 0.15030  0.09320  0.11280  Biso   1.000  H
  H120     1.0000 0.15810  0.08450  0.24060  Biso   1.000  H
  H121     1.0000 0.18910  0.11560  0.16680  Biso   1.000  H
  C108     1.0000 0.14370  0.02940  0.10250  Biso   1.000  C
  H122     1.0000 0.14970  0.01230  0.07010  Biso   1.000  H
  H123     1.0000 0.13320  0.02140  0.17960  Biso   1.000  H
  H124     1.0000 0.12670  0.03110  0.05150  Biso   1.000  H
  C109     1.0000 0.21140  0.99510  0.38140  Biso   1.000  C
  C110     1.0000 0.23460  0.99280  0.45840  Biso   1.000  C
  H125     1.0000 0.25720  0.01300  0.47280  Biso   1.000  H
  C111     1.0000 0.22500  0.96110  0.51440  Biso   1.000  C
  H126     1.0000 0.24090  0.95950  0.56710  Biso   1.000  H
  N13      1.0000 0.19200  0.93150  0.49340  Biso   1.000  N
  C112     1.0000 0.16880  0.93390  0.41630  Biso   1.000  C
  H127     1.0000 0.14620  0.91370  0.40190  Biso   1.000  H
  C113     1.0000 0.17840  0.96560  0.36030  Biso   1.000  C
  H128     1.0000 0.16250  0.96720  0.30760  Biso   1.000  H
  C114     1.0000 0.06800  0.88650  0.68520  Biso   1.000  C
  N14      1.0000 0.93390  0.74560  0.27680  Biso   1.000  N
  C115     1.0000 0.93460  0.76690  0.36760  Biso   1.000  C
  H129     1.0000 0.91370  0.76700  0.38930  Biso   1.000  H
  C116     1.0000 0.96610  0.78820  0.42670  Biso   1.000  C
  H130     1.0000 0.96650  0.80270  0.48870  Biso   1.000  H
  C117     1.0000 0.99670  0.78810  0.39490  Biso   1.000  C
  C118     1.0000 0.99600  0.76680  0.30410  Biso   1.000  C
  H131     1.0000 0.01700  0.76680  0.28240  Biso   1.000  H
  C119     1.0000 0.96460  0.74550  0.24510  Biso   1.000  C
  H132     1.0000 0.96410  0.73100  0.18300  Biso   1.000  H
  C120     1.0000 0.08060  0.88040  0.80250  Biso   1.000  C
  H133     1.0000 0.06350  0.85690  0.83180  Biso   1.000  H
  H134     1.0000 0.10370  0.88210  0.79300  Biso   1.000  H
  H135     1.0000 0.08270  0.89840  0.85790  Biso   1.000  H
  C121     1.0000 0.03130  0.81090  0.46180  Biso   1.000  C
  C122     1.0000 0.06080  0.80770  0.43810  Biso   1.000  C
  H136     1.0000 0.05930  0.79070  0.38380  Biso   1.000  H
  C123     1.0000 0.09270  0.82970  0.49380  Biso   1.000  C
  C124     1.0000 0.09500  0.85470  0.57320  Biso   1.000  C
  C125     1.0000 0.06540  0.85780  0.59690  Biso   1.000  C
  C126     1.0000 0.03360  0.83590  0.54120  Biso   1.000  C
  H137     1.0000 0.01340  0.83800  0.55740  Biso   1.000  H
  C127     1.0000 0.09480  0.92260  0.64360  Biso   1.000  C
  H138     1.0000 0.11760  0.92380  0.63300  Biso   1.000  H
  H139     1.0000 0.08700  0.92750  0.56960  Biso   1.000  H
  H140     1.0000 0.09730  0.94030  0.70110  Biso   1.000  H
  C128     1.0000 0.03290  0.88590  0.70070  Biso   1.000  C
  H141     1.0000 0.01480  0.86250  0.72790  Biso   1.000  H
  H142     1.0000 0.03590  0.90390  0.75770  Biso   1.000  H
  H143     1.0000 0.02550  0.89090  0.62620  Biso   1.000  H
  C129     1.0000 0.12270  0.82560  0.45040  Biso   1.000  C
  H144     1.0000 0.11720  0.80530  0.40520  Biso   1.000  H
  C130     1.0000 0.18290  0.84240  0.41430  Biso   1.000  C
  H145     1.0000 0.19650  0.86310  0.36190  Biso   1.000  H
  C131     1.0000 0.17200  0.80980  0.34230  Biso   1.000  C
  H146     1.0000 0.15960  0.78860  0.39250  Biso   1.000  H
  H147     1.0000 0.15520  0.80820  0.28170  Biso   1.000  H
  C132     1.0000 0.20220  0.80990  0.28700  Biso   1.000  C
  H148     1.0000 0.21230  0.82890  0.22790  Biso   1.000  H
  H149     1.0000 0.19400  0.78710  0.24690  Biso   1.000  H
  C133     1.0000 0.23210  0.81590  0.37880  Biso   1.000  C
  H150     1.0000 0.22380  0.79430  0.42630  Biso   1.000  H
  H151     1.0000 0.25360  0.82000  0.33650  Biso   1.000  H
  C134     1.0000 0.24120  0.84540  0.45420  Biso   1.000  C
  H152     1.0000 0.25460  0.86760  0.40920  Biso   1.000  H
  H153     1.0000 0.25690  0.84560  0.51640  Biso   1.000  H
  C135     1.0000 0.20870  0.84490  0.51030  Biso   1.000  C
  H154     1.0000 0.19640  0.82350  0.56110  Biso   1.000  H
  C136     1.0000 0.23330  0.87670  0.69810  Biso   1.000  C
  H155     1.0000 0.21540  0.85610  0.74300  Biso   1.000  H
  H156     1.0000 0.25390  0.87340  0.68580  Biso   1.000  H
  C137     1.0000 0.24450  0.90910  0.76630  Biso   1.000  C
  C138     1.0000 0.22290  0.92320  0.79140  Biso   1.000  C
  C139     1.0000 0.23550  0.95334  0.85950  Biso   1.000  C
  C140     1.0000 0.26990  0.96960  0.90230  Biso   1.000  C
  H157     1.0000 0.27850  0.99020  0.94880  Biso   1.000  H
  C141     1.0000 0.29156  0.95556  0.87710  Biso   1.000  C
  C142     1.0000 0.27890  0.92538  0.80910  Biso   1.000  C
  H158     1.0000 0.29370  0.91580  0.79190  Biso   1.000  H
  C143     1.0000 0.21220  0.97040  0.89100  Biso   1.000  C
  C144     1.0000 0.29630  0.11930  0.29620  Biso   1.000  C
  H159     1.0000 0.31200  0.11290  0.33120  Biso   1.000  H
  C145     1.0000 0.17790  0.94330  0.95320  Biso   1.000  C
  H160     1.0000 0.16550  0.92190  0.90570  Biso   1.000  H
  H161     1.0000 0.18380  0.93730  0.02870  Biso   1.000  H
  H162     1.0000 0.16270  0.95360  0.96470  Biso   1.000  H
  C146     1.0000 0.19780  0.97870  0.78100  Biso   1.000  C
  H163     1.0000 0.18560  0.95750  0.73290  Biso   1.000  H
  H164     1.0000 0.18130  0.98680  0.80270  Biso   1.000  H
  H165     1.0000 0.21750  0.99740  0.73680  Biso   1.000  H
  C147     1.0000 0.23120  0.00350  0.96560  Biso   1.000  C
  H166     1.0000 0.24040  0.99820  0.03580  Biso   1.000  H
  H167     1.0000 0.25090  0.02220  0.92160  Biso   1.000  H
  H168     1.0000 0.21470  0.01160  0.98740  Biso   1.000  H
  C148     1.0000 0.33160  0.97560  0.91780  Biso   1.000  C
  C149     1.0000 0.35130  0.95880  0.90350  Biso   1.000  C
  H169     1.0000 0.34050  0.93560  0.87160  Biso   1.000  H
  C150     1.0000 0.38670  0.97590  0.93590  Biso   1.000  C
  H170     1.0000 0.40010  0.96440  0.92620  Biso   1.000  H
  N15      1.0000 0.40240  0.00980  0.98260  Biso   1.000  N
  C151     1.0000 0.38260  0.02650  0.99690  Biso   1.000  C
  H171     1.0000 0.39340  0.04970  0.02880  Biso   1.000  H
  C152     1.0000 0.34720  0.00930  0.96450  Biso   1.000  C
  H172     1.0000 0.33380  0.02090  0.97420  Biso   1.000  H
  N16      1.0000 0.15480  0.84730  0.46980  Biso   1.000  N
  Zn5      1.0000 0.82769  0.11140  0.17686  Biso   1.000  Zn
  Zn6      1.0000 0.11303  0.28766  0.59468  Biso   1.000  Zn
  N17      1.0000 0.77870  0.11180  0.20250  Biso   1.000  N
  N18      1.0000 0.84680  0.15770  0.27190  Biso   1.000  N
  N19      1.0000 0.12280  0.34060  0.58220  Biso   1.000  N
  O9       1.0000 0.81560  0.09570  0.01400  Biso   1.000  O
  O10      1.0000 0.87670  0.12100  0.15620  Biso   1.000  O
  O11      1.0000 0.12560  0.25020  0.62870  Biso   1.000  O
  O12      1.0000 0.09350  0.28250  0.74900  Biso   1.000  O
  N20      1.0000 0.60430  0.99380  0.78050  Biso   1.000  N
  C153     1.0000 0.62360  0.97650  0.77330  Biso   1.000  C
  H173     1.0000 0.61270  0.95290  0.74510  Biso   1.000  H
  C154     1.0000 0.65890  0.99360  0.80740  Biso   1.000  C
  H174     1.0000 0.67200  0.98170  0.80250  Biso   1.000  H
  C155     1.0000 0.67480  0.02810  0.84870  Biso   1.000  C
  C156     1.0000 0.65550  0.04550  0.85590  Biso   1.000  C
  H175     1.0000 0.66640  0.06910  0.88410  Biso   1.000  H
  C157     1.0000 0.62030  0.02840  0.82180  Biso   1.000  C
  H176     1.0000 0.60700  0.04020  0.82670  Biso   1.000  H
  C158     1.0000 0.79320  0.03330  0.87060  Biso   1.000  C
  C159     1.0000 0.71320  0.04630  0.88980  Biso   1.000  C
  C160     1.0000 0.72550  0.07560  0.96210  Biso   1.000  C
  H177     1.0000 0.71030  0.08450  0.98270  Biso   1.000  H
  C161     1.0000 0.75990  0.09180  0.00430  Biso   1.000  C
  C162     1.0000 0.78200  0.07870  0.97420  Biso   1.000  C
  C163     1.0000 0.76970  0.04940  0.90190  Biso   1.000  C
  C164     1.0000 0.73530  0.03320  0.85970  Biso   1.000  C
  H178     1.0000 0.72700  0.01320  0.81030  Biso   1.000  H
  C165     1.0000 0.80220  0.01790  0.97900  Biso   1.000  C
  H179     1.0000 0.81390  0.03660  0.03760  Biso   1.000  H
  H180     1.0000 0.78040  0.99840  0.01150  Biso   1.000  H
  H181     1.0000 0.81820  0.00920  0.95620  Biso   1.000  H
  C166     1.0000 0.82670  0.06050  0.80430  Biso   1.000  C
  H182     1.0000 0.83970  0.08200  0.85120  Biso   1.000  H
  H183     1.0000 0.84200  0.05040  0.78930  Biso   1.000  H
  H184     1.0000 0.81980  0.06640  0.73040  Biso   1.000  H
  C167     1.0000 0.77550  0.00130  0.78920  Biso   1.000  C
  H185     1.0000 0.79190  0.99260  0.77350  Biso   1.000  H
  H186     1.0000 0.75400  0.98250  0.82590  Biso   1.000  H
  H187     1.0000 0.76920  0.00830  0.71610  Biso   1.000  H
  C168     1.0000 0.77020  0.12210  0.08940  Biso   1.000  C
  H188     1.0000 0.79100  0.14390  0.06000  Biso   1.000  H
  H189     1.0000 0.75040  0.12690  0.09880  Biso   1.000  H
  C169     1.0000 0.78530  0.13670  0.30320  Biso   1.000  C
  H190     1.0000 0.78600  0.12380  0.37390  Biso   1.000  H
  C170     1.0000 0.75510  0.14380  0.32290  Biso   1.000  C
  H191     1.0000 0.73220  0.12140  0.32430  Biso   1.000  H
  H192     1.0000 0.75440  0.15910  0.26080  Biso   1.000  H
  C171     1.0000 0.76280  0.16280  0.44260  Biso   1.000  C
  H193     1.0000 0.74300  0.16680  0.46300  Biso   1.000  H
  H194     1.0000 0.76420  0.14740  0.50300  Biso   1.000  H
  C172     1.0000 0.79590  0.19670  0.44140  Biso   1.000  C
  H195     1.0000 0.80020  0.20800  0.51880  Biso   1.000  H
  H196     1.0000 0.79440  0.21280  0.38390  Biso   1.000  H
  C173     1.0000 0.82630  0.19040  0.40960  Biso   1.000  C
  H197     1.0000 0.83020  0.17800  0.47480  Biso   1.000  H
  H198     1.0000 0.84810  0.21360  0.40040  Biso   1.000  H
  C174     1.0000 0.82030  0.16840  0.29620  Biso   1.000  C
  H199     1.0000 0.82030  0.18300  0.22930  Biso   1.000  H
  C175     1.0000 0.90850  0.17090  0.27990  Biso   1.000  C
  C176     1.0000 0.94040  0.19380  0.33410  Biso   1.000  C
  H200     1.0000 0.94200  0.21200  0.38330  Biso   1.000  H
  C177     1.0000 0.96980  0.19000  0.31630  Biso   1.000  C
  C178     1.0000 0.96730  0.16330  0.24430  Biso   1.000  C
  H201     1.0000 0.98740  0.16070  0.23210  Biso   1.000  H
  C179     1.0000 0.93550  0.14040  0.19000  Biso   1.000  C
  C180     1.0000 0.90610  0.14420  0.20780  Biso   1.000  C
  C181     1.0000 0.93400  0.11160  0.11240  Biso   1.000  C
  C182     1.0000 0.92390  0.11520  0.98070  Biso   1.000  C
  H202     1.0000 0.94110  0.13850  0.95040  Biso   1.000  H
  H203     1.0000 0.92420  0.09680  0.93290  Biso   1.000  H
  H204     1.0000 0.90020  0.11250  0.97890  Biso   1.000  H
  C183     1.0000 0.90790  0.07580  0.16300  Biso   1.000  C
  H205     1.0000 0.90680  0.05710  0.11280  Biso   1.000  H
  H206     1.0000 0.91550  0.07360  0.24060  Biso   1.000  H
  H207     1.0000 0.88440  0.07350  0.16680  Biso   1.000  H
  C184     1.0000 0.97060  0.11430  0.10250  Biso   1.000  C
  H208     1.0000 0.98770  0.13740  0.07010  Biso   1.000  H
  H209     1.0000 0.97860  0.11180  0.17960  Biso   1.000  H
  H210     1.0000 0.96890  0.09560  0.05150  Biso   1.000  H
  C185     1.0000 0.00490  0.21630  0.38140  Biso   1.000  C
  C186     1.0000 0.00720  0.24180  0.45840  Biso   1.000  C
  H211     1.0000 0.98700  0.24420  0.47280  Biso   1.000  H
  C187     1.0000 0.03890  0.26390  0.51440  Biso   1.000  C
  H212     1.0000 0.04050  0.28140  0.56710  Biso   1.000  H
  N21      1.0000 0.06850  0.26050  0.49340  Biso   1.000  N
  C188     1.0000 0.06610  0.23490  0.41630  Biso   1.000  C
  H213     1.0000 0.08630  0.23250  0.40190  Biso   1.000  H
  C189     1.0000 0.03440  0.21280  0.36030  Biso   1.000  C
  H214     1.0000 0.03280  0.19530  0.30760  Biso   1.000  H
  C190     1.0000 0.11350  0.18150  0.68520  Biso   1.000  C
  N22      1.0000 0.25440  0.18830  0.27680  Biso   1.000  N
  C191     1.0000 0.23310  0.16770  0.36760  Biso   1.000  C
  H215     1.0000 0.23300  0.14670  0.38930  Biso   1.000  H
  C192     1.0000 0.21180  0.17790  0.42670  Biso   1.000  C
  H216     1.0000 0.19730  0.16380  0.48870  Biso   1.000  H
  C193     1.0000 0.21190  0.20860  0.39490  Biso   1.000  C
  C194     1.0000 0.23320  0.22920  0.30410  Biso   1.000  C
  H217     1.0000 0.23320  0.25020  0.28240  Biso   1.000  H
  C195     1.0000 0.25450  0.21910  0.24510  Biso   1.000  C
  H218     1.0000 0.26900  0.23310  0.18300  Biso   1.000  H
  C196     1.0000 0.11960  0.20020  0.80250  Biso   1.000  C
  H219     1.0000 0.14310  0.20660  0.83180  Biso   1.000  H
  H220     1.0000 0.11790  0.22160  0.79300  Biso   1.000  H
  H221     1.0000 0.10160  0.18430  0.85790  Biso   1.000  H
  C197     1.0000 0.18910  0.22040  0.46180  Biso   1.000  C
  C198     1.0000 0.19230  0.25310  0.43810  Biso   1.000  C
  H222     1.0000 0.20930  0.26860  0.38380  Biso   1.000  H
  C199     1.0000 0.17030  0.26300  0.49380  Biso   1.000  C
  C200     1.0000 0.14530  0.24030  0.57320  Biso   1.000  C
  C201     1.0000 0.14220  0.20760  0.59690  Biso   1.000  C
  C202     1.0000 0.16410  0.19770  0.54120  Biso   1.000  C
  H223     1.0000 0.16200  0.17540  0.55740  Biso   1.000  H
  C203     1.0000 0.07740  0.17220  0.64360  Biso   1.000  C
  H224     1.0000 0.07620  0.19380  0.63300  Biso   1.000  H
  H225     1.0000 0.07250  0.15950  0.56960  Biso   1.000  H
  H226     1.0000 0.05970  0.15700  0.70110  Biso   1.000  H
  C204     1.0000 0.11410  0.14700  0.70070  Biso   1.000  C
  H227     1.0000 0.13750  0.15230  0.72790  Biso   1.000  H
  H228     1.0000 0.09610  0.13200  0.75770  Biso   1.000  H
  H229     1.0000 0.10910  0.13460  0.62620  Biso   1.000  H
  C205     1.0000 0.17440  0.29710  0.45040  Biso   1.000  C
  H230     1.0000 0.19470  0.31190  0.40520  Biso   1.000  H
  C206     1.0000 0.15760  0.34050  0.41430  Biso   1.000  C
  H231     1.0000 0.13690  0.33340  0.36190  Biso   1.000  H
  C207     1.0000 0.19020  0.36220  0.34230  Biso   1.000  C
  H232     1.0000 0.21140  0.37100  0.39250  Biso   1.000  H
  H233     1.0000 0.19180  0.34700  0.28170  Biso   1.000  H
  C208     1.0000 0.19010  0.39230  0.28700  Biso   1.000  C
  H234     1.0000 0.17110  0.38340  0.22790  Biso   1.000  H
  H235     1.0000 0.21290  0.40690  0.24690  Biso   1.000  H
  C209     1.0000 0.18410  0.41620  0.37880  Biso   1.000  C
  H236     1.0000 0.20570  0.42950  0.42630  Biso   1.000  H
  H237     1.0000 0.18000  0.43360  0.33650  Biso   1.000  H
  C210     1.0000 0.15460  0.39580  0.45420  Biso   1.000  C
  H238     1.0000 0.13240  0.38700  0.40920  Biso   1.000  H
  H239     1.0000 0.15440  0.41130  0.51640  Biso   1.000  H
  C211     1.0000 0.15510  0.36380  0.51030  Biso   1.000  C
  H240     1.0000 0.17650  0.37290  0.56110  Biso   1.000  H
  C212     1.0000 0.12330  0.35660  0.69810  Biso   1.000  C
  H241     1.0000 0.14390  0.35930  0.74300  Biso   1.000  H
  H242     1.0000 0.12660  0.38050  0.68580  Biso   1.000  H
  C213     1.0000 0.09090  0.33540  0.76630  Biso   1.000  C
  C214     1.0000 0.07680  0.29970  0.79140  Biso   1.000  C
  C215     1.0000 0.04666  0.28216  0.85950  Biso   1.000  C
  C216     1.0000 0.03040  0.30030  0.90230  Biso   1.000  C
  H243     1.0000 0.00980  0.28830  0.94880  Biso   1.000  H
  C217     1.0000 0.04444  0.33600  0.87710  Biso   1.000  C
  C218     1.0000 0.07462  0.35352  0.80910  Biso   1.000  C
  H244     1.0000 0.08420  0.37790  0.79190  Biso   1.000  H
  C219     1.0000 0.02960  0.24180  0.89100  Biso   1.000  C
  C220     1.0000 0.88070  0.17700  0.29620  Biso   1.000  C
  H245     1.0000 0.88710  0.19910  0.33120  Biso   1.000  H
  C221     1.0000 0.05670  0.23460  0.95320  Biso   1.000  C
  H246     1.0000 0.07810  0.24360  0.90570  Biso   1.000  H
  H247     1.0000 0.06270  0.24650  0.02870  Biso   1.000  H
  H248     1.0000 0.04640  0.20910  0.96470  Biso   1.000  H
  C222     1.0000 0.02130  0.21910  0.78100  Biso   1.000  C
  H249     1.0000 0.04250  0.22810  0.73290  Biso   1.000  H
  H250     1.0000 0.01320  0.19450  0.80270  Biso   1.000  H
  H251     1.0000 0.00260  0.22010  0.73680  Biso   1.000  H
  C223     1.0000 0.99650  0.22770  0.96560  Biso   1.000  C
  H252     1.0000 0.00180  0.24220  0.03580  Biso   1.000  H
  H253     1.0000 0.97780  0.22870  0.92160  Biso   1.000  H
  H254     1.0000 0.98840  0.20310  0.98740  Biso   1.000  H
  C224     1.0000 0.02440  0.35600  0.91780  Biso   1.000  C
  C225     1.0000 0.04120  0.39250  0.90350  Biso   1.000  C
  H255     1.0000 0.06440  0.40490  0.87160  Biso   1.000  H
  C226     1.0000 0.02410  0.41080  0.93590  Biso   1.000  C
  H256     1.0000 0.03560  0.43570  0.92620  Biso   1.000  H
  N23      1.0000 0.99020  0.39260  0.98260  Biso   1.000  N
  C227     1.0000 0.97350  0.35610  0.99690  Biso   1.000  C
  H257     1.0000 0.95030  0.34370  0.02880  Biso   1.000  H
  C228     1.0000 0.99070  0.33790  0.96450  Biso   1.000  C
  H258     1.0000 0.97910  0.31290  0.97420  Biso   1.000  H
  N24      1.0000 0.15270  0.30750  0.46980  Biso   1.000  N
  Zn7      1.0000 0.55527  0.04962  0.51019  Biso   1.000  Zn
  Zn8      1.0000 0.37901  0.15870  0.92801  Biso   1.000  Zn
  N25      1.0000 0.55487  0.00023  0.53583  Biso   1.000  N
  N26      1.0000 0.50897  0.02243  0.60523  Biso   1.000  N
  N27      1.0000 0.32607  0.11553  0.91553  Biso   1.000  N
  O13      1.0000 0.57097  0.05323  0.34733  Biso   1.000  O
  O14      1.0000 0.54567  0.08903  0.48953  Biso   1.000  O
  O15      1.0000 0.41647  0.20873  0.96203  Biso   1.000  O
  O16      1.0000 0.38417  0.14433  0.08233  Biso   1.000  O
  N28      1.0000 0.67287  0.94383  0.11383  Biso   1.000  N
  C229     1.0000 0.69017  0.98043  0.10663  Biso   1.000  C
  H259     1.0000 0.71377  0.99313  0.07843  Biso   1.000  H
  C230     1.0000 0.67307  0.99863  0.14073  Biso   1.000  C
  H260     1.0000 0.68497  0.02363  0.13583  Biso   1.000  H
  C231     1.0000 0.63857  0.98003  0.18203  Biso   1.000  C
  C232     1.0000 0.62117  0.94333  0.18923  Biso   1.000  C
  H261     1.0000 0.59757  0.93063  0.21743  Biso   1.000  H
  C233     1.0000 0.63827  0.92523  0.15513  Biso   1.000  C
  H262     1.0000 0.62647  0.90013  0.16003  Biso   1.000  H
  C234     1.0000 0.63337  0.09323  0.20393  Biso   1.000  C
  C235     1.0000 0.62037  0.00023  0.22313  Biso   1.000  C
  C236     1.0000 0.59107  0.98323  0.29543  Biso   1.000  C
  H263     1.0000 0.58217  0.95913  0.31603  Biso   1.000  H
  C237     1.0000 0.57487  0.00143  0.33763  Biso   1.000  C
  C238     1.0000 0.58797  0.03663  0.30753  Biso   1.000  C
  C239     1.0000 0.61727  0.05363  0.23523  Biso   1.000  C
  C240     1.0000 0.63347  0.03543  0.19303  Biso   1.000  C
  H264     1.0000 0.65347  0.04713  0.14363  Biso   1.000  H
  C241     1.0000 0.64877  0.11763  0.31233  Biso   1.000  C
  H265     1.0000 0.63007  0.11063  0.37093  Biso   1.000  H
  H266     1.0000 0.66827  0.11533  0.34483  Biso   1.000  H
  H267     1.0000 0.65747  0.14233  0.28953  Biso   1.000  H
  C242     1.0000 0.60617  0.09953  0.13763  Biso   1.000  C
  H268     1.0000 0.58467  0.09103  0.18453  Biso   1.000  H
  H269     1.0000 0.61627  0.12493  0.12263  Biso   1.000  H
  H270     1.0000 0.60027  0.08673  0.06373  Biso   1.000  H
  C243     1.0000 0.66537  0.10753  0.12253  Biso   1.000  C
  H271     1.0000 0.67407  0.13263  0.10683  Biso   1.000  H
  H272     1.0000 0.68417  0.10483  0.15923  Biso   1.000  H
  H273     1.0000 0.65837  0.09423  0.04943  Biso   1.000  H
  C244     1.0000 0.54457  0.98143  0.42273  Biso   1.000  C
  H274     1.0000 0.52277  0.98043  0.39333  Biso   1.000  H
  H275     1.0000 0.53977  0.95683  0.43213  Biso   1.000  H
  C245     1.0000 0.52997  0.98193  0.63653  Biso   1.000  C
  H276     1.0000 0.54287  0.99553  0.70723  Biso   1.000  H
  C246     1.0000 0.52287  0.94463  0.65623  Biso   1.000  C
  H277     1.0000 0.54527  0.94413  0.65763  Biso   1.000  H
  H278     1.0000 0.50757  0.92863  0.59413  Biso   1.000  H
  C247     1.0000 0.50387  0.93333  0.77593  Biso   1.000  C
  H279     1.0000 0.49987  0.90953  0.79633  Biso   1.000  H
  H280     1.0000 0.51927  0.95013  0.83633  Biso   1.000  H
  C248     1.0000 0.46997  0.93253  0.77473  Biso   1.000  C
  H281     1.0000 0.45867  0.92553  0.85213  Biso   1.000  H
  H282     1.0000 0.45387  0.91493  0.71723  Biso   1.000  H
  C249     1.0000 0.47627  0.96923  0.74293  Biso   1.000  C
  H283     1.0000 0.48867  0.98553  0.80813  Biso   1.000  H
  H284     1.0000 0.45307  0.96783  0.73373  Biso   1.000  H
  C250     1.0000 0.49827  0.98523  0.62953  Biso   1.000  C
  H285     1.0000 0.48367  0.97063  0.56263  Biso   1.000  H
  C251     1.0000 0.49577  0.07093  0.61323  Biso   1.000  C
  C252     1.0000 0.47287  0.07993  0.66743  Biso   1.000  C
  H286     1.0000 0.45467  0.06333  0.71663  Biso   1.000  H
  C253     1.0000 0.47667  0.11313  0.64963  Biso   1.000  C
  C254     1.0000 0.50337  0.13733  0.57763  Biso   1.000  C
  H287     1.0000 0.50597  0.16003  0.56543  Biso   1.000  H
  C255     1.0000 0.52627  0.12843  0.52333  Biso   1.000  C
  C256     1.0000 0.52247  0.09523  0.54113  Biso   1.000  C
  C257     1.0000 0.55507  0.15573  0.44573  Biso   1.000  C
  C258     1.0000 0.55147  0.14203  0.31403  Biso   1.000  C
  H288     1.0000 0.52817  0.13593  0.28373  Biso   1.000  H
  H289     1.0000 0.56987  0.16073  0.26623  Biso   1.000  H
  H290     1.0000 0.55417  0.12103  0.31223  Biso   1.000  H
  C259     1.0000 0.59087  0.16543  0.49633  Biso   1.000  C
  H291     1.0000 0.60957  0.18303  0.44613  Biso   1.000  H
  H292     1.0000 0.59307  0.17523  0.57393  Biso   1.000  H
  H293     1.0000 0.59317  0.14423  0.50013  Biso   1.000  H
  C260     1.0000 0.55237  0.18963  0.43583  Biso   1.000  C
  H294     1.0000 0.52927  0.18363  0.40343  Biso   1.000  H
  H295     1.0000 0.55487  0.20013  0.51293  Biso   1.000  H
  H296     1.0000 0.57107  0.20663  0.38483  Biso   1.000  H
  C261     1.0000 0.45037  0.12193  0.71473  Biso   1.000  C
  C262     1.0000 0.42487  0.09873  0.79173  Biso   1.000  C
  H297     1.0000 0.42247  0.07613  0.80613  Biso   1.000  H
  C263     1.0000 0.40277  0.10833  0.84773  Biso   1.000  C
  H298     1.0000 0.38527  0.09243  0.90043  Biso   1.000  H
  N29      1.0000 0.40617  0.14133  0.82673  Biso   1.000  N
  C264     1.0000 0.43177  0.16453  0.74963  Biso   1.000  C
  H299     1.0000 0.43417  0.18713  0.73523  Biso   1.000  H
  C265     1.0000 0.45387  0.15493  0.69363  Biso   1.000  C
  H300     1.0000 0.47137  0.17083  0.64093  Biso   1.000  H
  C266     1.0000 0.48517  0.26533  0.01853  Biso   1.000  C
  N30      1.0000 0.47837  0.39943  0.61013  Biso   1.000  N
  C267     1.0000 0.49897  0.39873  0.70093  Biso   1.000  C
  H301     1.0000 0.51997  0.41963  0.72263  Biso   1.000  H
  C268     1.0000 0.48877  0.36723  0.76003  Biso   1.000  C
  H302     1.0000 0.50287  0.36683  0.82203  Biso   1.000  H
  C269     1.0000 0.45807  0.33663  0.72823  Biso   1.000  C
  C270     1.0000 0.43747  0.33733  0.63743  Biso   1.000  C
  H303     1.0000 0.41647  0.31633  0.61573  Biso   1.000  H
  C271     1.0000 0.44757  0.36873  0.57843  Biso   1.000  C
  H304     1.0000 0.43357  0.36923  0.51633  Biso   1.000  H
  C272     1.0000 0.46647  0.25273  0.13583  Biso   1.000  C
  H305     1.0000 0.46007  0.26983  0.16513  Biso   1.000  H
  H306     1.0000 0.44507  0.22963  0.12633  Biso   1.000  H
  H307     1.0000 0.48237  0.25063  0.19123  Biso   1.000  H
  C273     1.0000 0.44627  0.30203  0.79513  Biso   1.000  C
  C274     1.0000 0.41357  0.27253  0.77143  Biso   1.000  C
  H308     1.0000 0.39807  0.27403  0.71713  Biso   1.000  H
  C275     1.0000 0.40367  0.24063  0.82713  Biso   1.000  C
  C276     1.0000 0.42637  0.23833  0.90653  Biso   1.000  C
  C277     1.0000 0.45907  0.26793  0.93023  Biso   1.000  C
  C278     1.0000 0.46897  0.29973  0.87453  Biso   1.000  C
  H309     1.0000 0.49127  0.31993  0.89073  Biso   1.000  H
  C279     1.0000 0.49447  0.23853  0.97693  Biso   1.000  C
  H310     1.0000 0.47287  0.21573  0.96633  Biso   1.000  H
  H311     1.0000 0.50717  0.24633  0.90293  Biso   1.000  H
  H312     1.0000 0.50967  0.23603  0.03443  Biso   1.000  H
  C280     1.0000 0.51967  0.30043  0.03403  Biso   1.000  C
  H313     1.0000 0.51437  0.31853  0.06123  Biso   1.000  H
  H314     1.0000 0.53467  0.29743  0.09103  Biso   1.000  H
  H315     1.0000 0.53207  0.30783  0.95953  Biso   1.000  H
  C281     1.0000 0.36957  0.21063  0.78373  Biso   1.000  C
  H316     1.0000 0.35477  0.21613  0.73853  Biso   1.000  H
  C282     1.0000 0.32617  0.15043  0.74763  Biso   1.000  C
  H317     1.0000 0.33327  0.13683  0.69523  Biso   1.000  H
  C283     1.0000 0.30447  0.16133  0.67563  Biso   1.000  C
  H318     1.0000 0.29567  0.17373  0.72583  Biso   1.000  H
  H319     1.0000 0.31967  0.17813  0.61503  Biso   1.000  H
  C284     1.0000 0.27437  0.13113  0.62033  Biso   1.000  C
  H320     1.0000 0.28327  0.12103  0.56123  Biso   1.000  H
  H321     1.0000 0.25977  0.13933  0.58023  Biso   1.000  H
  C285     1.0000 0.25047  0.10123  0.71213  Biso   1.000  C
  H322     1.0000 0.23717  0.10953  0.75963  Biso   1.000  H
  H323     1.0000 0.23307  0.07973  0.66983  Biso   1.000  H
  C286     1.0000 0.27087  0.09213  0.78753  Biso   1.000  C
  H324     1.0000 0.27967  0.07873  0.74253  Biso   1.000  H
  H325     1.0000 0.25537  0.07643  0.84973  Biso   1.000  H
  C287     1.0000 0.30287  0.12463  0.84363  Biso   1.000  C
  H326     1.0000 0.29377  0.13693  0.89443  Biso   1.000  H
  C288     1.0000 0.31007  0.10003  0.03143  Biso   1.000  C
  H327     1.0000 0.30737  0.11793  0.07633  Biso   1.000  H
  H328     1.0000 0.28617  0.07943  0.01913  Biso   1.000  H
  C289     1.0000 0.33127  0.08883  0.09963  Biso   1.000  C
  C290     1.0000 0.36697  0.11043  0.12473  Biso   1.000  C
  C291     1.0000 0.38451  0.09783  0.19283  Biso   1.000  C
  C292     1.0000 0.36637  0.06343  0.23563  Biso   1.000  C
  H329     1.0000 0.37837  0.05483  0.28213  Biso   1.000  H
  C293     1.0000 0.33067  0.04177  0.21043  Biso   1.000  C
  C294     1.0000 0.31315  0.05443  0.14243  Biso   1.000  C
  H330     1.0000 0.28877  0.03963  0.12523  Biso   1.000  H
  C295     1.0000 0.42487  0.12113  0.22433  Biso   1.000  C
  C296     1.0000 0.48967  0.03703  0.62953  Biso   1.000  C
  H331     1.0000 0.46757  0.02133  0.66453  Biso   1.000  H
  C297     1.0000 0.43207  0.15543  0.28653  Biso   1.000  C
  H332     1.0000 0.42307  0.16783  0.23903  Biso   1.000  H
  H333     1.0000 0.42017  0.14953  0.36203  Biso   1.000  H
  H334     1.0000 0.45757  0.17063  0.29803  Biso   1.000  H
  C298     1.0000 0.44757  0.13553  0.11433  Biso   1.000  C
  H335     1.0000 0.43857  0.14773  0.06623  Biso   1.000  H
  H336     1.0000 0.47217  0.15203  0.13603  Biso   1.000  H
  H337     1.0000 0.44657  0.11583  0.07013  Biso   1.000  H
  C299     1.0000 0.43897  0.10213  0.29893  Biso   1.000  C
  H338     1.0000 0.42447  0.09293  0.36913  Biso   1.000  H
  H339     1.0000 0.43797  0.08243  0.25493  Biso   1.000  H
  H340     1.0000 0.46357  0.11863  0.32073  Biso   1.000  H
  C300     1.0000 0.31067  0.00173  0.25113  Biso   1.000  C
  C301     1.0000 0.27417  0.98203  0.23683  Biso   1.000  C
  H341     1.0000 0.26177  0.99283  0.20493  Biso   1.000  H
  C302     1.0000 0.25587  0.94663  0.26923  Biso   1.000  C
  H342     1.0000 0.23097  0.93323  0.25953  Biso   1.000  H
  N31      1.0000 0.27407  0.93093  0.31593  Biso   1.000  N
  C303     1.0000 0.31057  0.95073  0.33023  Biso   1.000  C
  H343     1.0000 0.32297  0.93993  0.36213  Biso   1.000  H
  C304     1.0000 0.32877  0.98613  0.29783  Biso   1.000  C
  H344     1.0000 0.35377  0.99953  0.30753  Biso   1.000  H
  N32      1.0000 0.35917  0.17853  0.80313  Biso   1.000  N
  Zn9      1.0000 0.95038  0.50564  0.51019  Biso   1.000  Zn
  Zn10     1.0000 0.84130  0.22030  0.92801  Biso   1.000  Zn
  N33      1.0000 0.99977  0.55463  0.53583  Biso   1.000  N
  N34      1.0000 0.97757  0.48653  0.60523  Biso   1.000  N
  N35      1.0000 0.88447  0.21053  0.91553  Biso   1.000  N
  O17      1.0000 0.94677  0.51773  0.34733  Biso   1.000  O
  O18      1.0000 0.91097  0.45663  0.48953  Biso   1.000  O
  O19      1.0000 0.79127  0.20773  0.96203  Biso   1.000  O
  O20      1.0000 0.85567  0.23983  0.08233  Biso   1.000  O
  N36      1.0000 0.05617  0.72903  0.11383  Biso   1.000  N
  C305     1.0000 0.01957  0.70973  0.10663  Biso   1.000  C
  H345     1.0000 0.00687  0.72063  0.07843  Biso   1.000  H
  C306     1.0000 0.00137  0.67443  0.14073  Biso   1.000  C
  H346     1.0000 0.97637  0.66133  0.13583  Biso   1.000  H
  C307     1.0000 0.01997  0.65853  0.18203  Biso   1.000  C
  C308     1.0000 0.05667  0.67783  0.18923  Biso   1.000  C
  H347     1.0000 0.06937  0.66693  0.21743  Biso   1.000  H
  C309     1.0000 0.07477  0.71303  0.15513  Biso   1.000  C
  H348     1.0000 0.09987  0.72633  0.16003  Biso   1.000  H
  C310     1.0000 0.90677  0.54013  0.20393  Biso   1.000  C
  C311     1.0000 0.99977  0.62013  0.22313  Biso   1.000  C
  C312     1.0000 0.01677  0.60783  0.29543  Biso   1.000  C
  H349     1.0000 0.04087  0.62303  0.31603  Biso   1.000  H
  C313     1.0000 0.99857  0.57343  0.33763  Biso   1.000  C
  C314     1.0000 0.96337  0.55133  0.30753  Biso   1.000  C
  C315     1.0000 0.94637  0.56363  0.23523  Biso   1.000  C
  C316     1.0000 0.96457  0.59803  0.19303  Biso   1.000  C
  H350     1.0000 0.95287  0.60633  0.14363  Biso   1.000  H
  C317     1.0000 0.88237  0.53113  0.31233  Biso   1.000  C
  H351     1.0000 0.88937  0.51943  0.37093  Biso   1.000  H
  H352     1.0000 0.88467  0.55293  0.34483  Biso   1.000  H
  H353     1.0000 0.85767  0.51513  0.28953  Biso   1.000  H
  C318     1.0000 0.90047  0.50663  0.13763  Biso   1.000  C
  H354     1.0000 0.90897  0.49363  0.18453  Biso   1.000  H
  H355     1.0000 0.87507  0.49133  0.12263  Biso   1.000  H
  H356     1.0000 0.91327  0.51353  0.06373  Biso   1.000  H
  C319     1.0000 0.89247  0.55783  0.12253  Biso   1.000  C
  H357     1.0000 0.86737  0.54143  0.10683  Biso   1.000  H
  H358     1.0000 0.89517  0.57933  0.15923  Biso   1.000  H
  H359     1.0000 0.90577  0.56413  0.04943  Biso   1.000  H
  C320     1.0000 0.01857  0.56313  0.42273  Biso   1.000  C
  H360     1.0000 0.01957  0.54233  0.39333  Biso   1.000  H
  H361     1.0000 0.04317  0.58293  0.43213  Biso   1.000  H
  C321     1.0000 0.01807  0.54803  0.63653  Biso   1.000  C
  H362     1.0000 0.00447  0.54733  0.70723  Biso   1.000  H
  C322     1.0000 0.05537  0.57823  0.65623  Biso   1.000  C
  H363     1.0000 0.05587  0.60113  0.65763  Biso   1.000  H
  H364     1.0000 0.07137  0.57893  0.59413  Biso   1.000  H
  C323     1.0000 0.06667  0.57053  0.77593  Biso   1.000  C
  H365     1.0000 0.09047  0.59033  0.79633  Biso   1.000  H
  H366     1.0000 0.04987  0.56913  0.83633  Biso   1.000  H
  C324     1.0000 0.06747  0.53743  0.77473  Biso   1.000  C
  H367     1.0000 0.07447  0.53313  0.85213  Biso   1.000  H
  H368     1.0000 0.08507  0.53893  0.71723  Biso   1.000  H
  C325     1.0000 0.03077  0.50703  0.74293  Biso   1.000  C
  H369     1.0000 0.01447  0.50313  0.80813  Biso   1.000  H
  H370     1.0000 0.03217  0.48523  0.73373  Biso   1.000  H
  C326     1.0000 0.01477  0.51303  0.62953  Biso   1.000  C
  H371     1.0000 0.02937  0.51303  0.56263  Biso   1.000  H
  C327     1.0000 0.92907  0.42483  0.61323  Biso   1.000  C
  C328     1.0000 0.92007  0.39293  0.66743  Biso   1.000  C
  H372     1.0000 0.93667  0.39133  0.71663  Biso   1.000  H
  C329     1.0000 0.88687  0.36353  0.64963  Biso   1.000  C
  C330     1.0000 0.86267  0.36603  0.57763  Biso   1.000  C
  H373     1.0000 0.83997  0.34593  0.56543  Biso   1.000  H
  C331     1.0000 0.87157  0.39783  0.52333  Biso   1.000  C
  C332     1.0000 0.90477  0.42723  0.54113  Biso   1.000  C
  C333     1.0000 0.84427  0.39933  0.44573  Biso   1.000  C
  C334     1.0000 0.85797  0.40943  0.31403  Biso   1.000  C
  H374     1.0000 0.86407  0.39223  0.28373  Biso   1.000  H
  H375     1.0000 0.83927  0.40913  0.26623  Biso   1.000  H
  H376     1.0000 0.87897  0.43313  0.31223  Biso   1.000  H
  C335     1.0000 0.83457  0.42543  0.49633  Biso   1.000  C
  H377     1.0000 0.81697  0.42653  0.44613  Biso   1.000  H
  H378     1.0000 0.82477  0.41783  0.57393  Biso   1.000  H
  H379     1.0000 0.85577  0.44893  0.50013  Biso   1.000  H
  C336     1.0000 0.81037  0.36273  0.43583  Biso   1.000  C
  H380     1.0000 0.81637  0.34563  0.40343  Biso   1.000  H
  H381     1.0000 0.79987  0.35473  0.51293  Biso   1.000  H
  H382     1.0000 0.79337  0.36443  0.38483  Biso   1.000  H
  C337     1.0000 0.87807  0.32843  0.71473  Biso   1.000  C
  C338     1.0000 0.90127  0.32613  0.79173  Biso   1.000  C
  H383     1.0000 0.92387  0.34633  0.80613  Biso   1.000  H
  C339     1.0000 0.89167  0.29443  0.84773  Biso   1.000  C
  H384     1.0000 0.90757  0.29283  0.90043  Biso   1.000  H
  N37      1.0000 0.85867  0.26483  0.82673  Biso   1.000  N
  C340     1.0000 0.83547  0.26723  0.74963  Biso   1.000  C
  H385     1.0000 0.81287  0.24703  0.73523  Biso   1.000  H
  C341     1.0000 0.84507  0.29893  0.69363  Biso   1.000  C
  H386     1.0000 0.82917  0.30053  0.64093  Biso   1.000  H
  C342     1.0000 0.73467  0.21983  0.01853  Biso   1.000  C
  N38      1.0000 0.60057  0.07893  0.61013  Biso   1.000  N
  C343     1.0000 0.60127  0.10023  0.70093  Biso   1.000  C
  H387     1.0000 0.58037  0.10033  0.72263  Biso   1.000  H
  C344     1.0000 0.63277  0.12153  0.76003  Biso   1.000  C
  H388     1.0000 0.63317  0.13603  0.82203  Biso   1.000  H
  C345     1.0000 0.66337  0.12143  0.72823  Biso   1.000  C
  C346     1.0000 0.66267  0.10013  0.63743  Biso   1.000  C
  H389     1.0000 0.68367  0.10013  0.61573  Biso   1.000  H
  C347     1.0000 0.63127  0.07883  0.57843  Biso   1.000  C
  H390     1.0000 0.63077  0.06433  0.51633  Biso   1.000  H
  C348     1.0000 0.74727  0.21373  0.13583  Biso   1.000  C
  H391     1.0000 0.73017  0.19023  0.16513  Biso   1.000  H
  H392     1.0000 0.77037  0.21543  0.12633  Biso   1.000  H
  H393     1.0000 0.74937  0.23173  0.19123  Biso   1.000  H
  C349     1.0000 0.69797  0.14423  0.79513  Biso   1.000  C
  C350     1.0000 0.72747  0.14103  0.77143  Biso   1.000  C
  H394     1.0000 0.72597  0.12403  0.71713  Biso   1.000  H
  C351     1.0000 0.75937  0.16303  0.82713  Biso   1.000  C
  C352     1.0000 0.76167  0.18803  0.90653  Biso   1.000  C
  C353     1.0000 0.73207  0.19113  0.93023  Biso   1.000  C
  C354     1.0000 0.70027  0.16923  0.87453  Biso   1.000  C
  H395     1.0000 0.68007  0.17133  0.89073  Biso   1.000  H
  C355     1.0000 0.76147  0.25593  0.97693  Biso   1.000  C
  H396     1.0000 0.78427  0.25713  0.96633  Biso   1.000  H
  H397     1.0000 0.75367  0.26083  0.90293  Biso   1.000  H
  H398     1.0000 0.76397  0.27363  0.03443  Biso   1.000  H
  C356     1.0000 0.69957  0.21923  0.03403  Biso   1.000  C
  H399     1.0000 0.68147  0.19583  0.06123  Biso   1.000  H
  H400     1.0000 0.70257  0.23723  0.09103  Biso   1.000  H
  H401     1.0000 0.69217  0.22423  0.95953  Biso   1.000  H
  C357     1.0000 0.78937  0.15893  0.78373  Biso   1.000  C
  H402     1.0000 0.78387  0.13863  0.73853  Biso   1.000  H
  C358     1.0000 0.84957  0.17573  0.74763  Biso   1.000  C
  H403     1.0000 0.86317  0.19643  0.69523  Biso   1.000  H
  C359     1.0000 0.83867  0.14313  0.67563  Biso   1.000  C
  H404     1.0000 0.82627  0.12193  0.72583  Biso   1.000  H
  H405     1.0000 0.82187  0.14153  0.61503  Biso   1.000  H
  C360     1.0000 0.86887  0.14323  0.62033  Biso   1.000  C
  H406     1.0000 0.87897  0.16223  0.56123  Biso   1.000  H
  H407     1.0000 0.86067  0.12043  0.58023  Biso   1.000  H
  C361     1.0000 0.89877  0.14923  0.71213  Biso   1.000  C
  H408     1.0000 0.89047  0.12763  0.75963  Biso   1.000  H
  H409     1.0000 0.92027  0.15333  0.66983  Biso   1.000  H
  C362     1.0000 0.90787  0.17873  0.78753  Biso   1.000  C
  H410     1.0000 0.92127  0.20093  0.74253  Biso   1.000  H
  H411     1.0000 0.92357  0.17893  0.84973  Biso   1.000  H
  C363     1.0000 0.87537  0.17823  0.84363  Biso   1.000  C
  H412     1.0000 0.86307  0.15683  0.89443  Biso   1.000  H
  C364     1.0000 0.89997  0.21003  0.03143  Biso   1.000  C
  H413     1.0000 0.88207  0.18943  0.07633  Biso   1.000  H
  H414     1.0000 0.92057  0.20673  0.01913  Biso   1.000  H
  C365     1.0000 0.91117  0.24243  0.09963  Biso   1.000  C
  C366     1.0000 0.88957  0.25653  0.12473  Biso   1.000  C
  C367     1.0000 0.90217  0.28667  0.19283  Biso   1.000  C
  C368     1.0000 0.93657  0.30293  0.23563  Biso   1.000  C
  H415     1.0000 0.94517  0.32353  0.28213  Biso   1.000  H
  C369     1.0000 0.95823  0.28889  0.21043  Biso   1.000  C
  C370     1.0000 0.94557  0.25871  0.14243  Biso   1.000  C
  H416     1.0000 0.96037  0.24913  0.12523  Biso   1.000  H
  C371     1.0000 0.87887  0.30373  0.22433  Biso   1.000  C
  C372     1.0000 0.96297  0.45263  0.62953  Biso   1.000  C
  H417     1.0000 0.97867  0.44623  0.66453  Biso   1.000  H
  C373     1.0000 0.84457  0.27663  0.28653  Biso   1.000  C
  H418     1.0000 0.83217  0.25523  0.23903  Biso   1.000  H
  H419     1.0000 0.85047  0.27063  0.36203  Biso   1.000  H
  H420     1.0000 0.82937  0.28693  0.29803  Biso   1.000  H
  C374     1.0000 0.86447  0.31203  0.11433  Biso   1.000  C
  H421     1.0000 0.85227  0.29083  0.06623  Biso   1.000  H
  H422     1.0000 0.84797  0.32013  0.13603  Biso   1.000  H
  H423     1.0000 0.88417  0.33073  0.07013  Biso   1.000  H
  C375     1.0000 0.89787  0.33683  0.29893  Biso   1.000  C
  H424     1.0000 0.90707  0.33153  0.36913  Biso   1.000  H
  H425     1.0000 0.91757  0.35553  0.25493  Biso   1.000  H
  H426     1.0000 0.88137  0.34493  0.32073  Biso   1.000  H
  C376     1.0000 0.99827  0.30893  0.25113  Biso   1.000  C
  C377     1.0000 0.01797  0.29213  0.23683  Biso   1.000  C
  H427     1.0000 0.00717  0.26893  0.20493  Biso   1.000  H
  C378     1.0000 0.05337  0.30923  0.26923  Biso   1.000  C
  H428     1.0000 0.06677  0.29773  0.25953  Biso   1.000  H
  N39      1.0000 0.06907  0.34313  0.31593  Biso   1.000  N
  C379     1.0000 0.04927  0.35983  0.33023  Biso   1.000  C
  H429     1.0000 0.06007  0.38303  0.36213  Biso   1.000  H
  C380     1.0000 0.01387  0.34263  0.29783  Biso   1.000  C
  H430     1.0000 0.00047  0.35423  0.30753  Biso   1.000  H
  N40      1.0000 0.82147  0.18063  0.80313  Biso   1.000  N
  Zn11     1.0000 0.49436  0.44473  0.51019  Biso   1.000  Zn
  Zn12     1.0000 0.77970  0.62099  0.92801  Biso   1.000  Zn
  N41      1.0000 0.44537  0.44513  0.53583  Biso   1.000  N
  N42      1.0000 0.51347  0.49103  0.60523  Biso   1.000  N
  N43      1.0000 0.78947  0.67393  0.91553  Biso   1.000  N
  O21      1.0000 0.48227  0.42903  0.34733  Biso   1.000  O
  O22      1.0000 0.54337  0.45433  0.48953  Biso   1.000  O
  O23      1.0000 0.79227  0.58353  0.96203  Biso   1.000  O
  O24      1.0000 0.76017  0.61583  0.08233  Biso   1.000  O
  N44      1.0000 0.27097  0.32713  0.11383  Biso   1.000  N
  C381     1.0000 0.29027  0.30983  0.10663  Biso   1.000  C
  H431     1.0000 0.27937  0.28623  0.07843  Biso   1.000  H
  C382     1.0000 0.32557  0.32693  0.14073  Biso   1.000  C
  H432     1.0000 0.33867  0.31503  0.13583  Biso   1.000  H
  C383     1.0000 0.34147  0.36143  0.18203  Biso   1.000  C
  C384     1.0000 0.32217  0.37883  0.18923  Biso   1.000  C
  H433     1.0000 0.33307  0.40243  0.21743  Biso   1.000  H
  C385     1.0000 0.28697  0.36173  0.15513  Biso   1.000  C
  H434     1.0000 0.27367  0.37353  0.16003  Biso   1.000  H
  C386     1.0000 0.45987  0.36663  0.20393  Biso   1.000  C
  C387     1.0000 0.37987  0.37963  0.22313  Biso   1.000  C
  C388     1.0000 0.39217  0.40893  0.29543  Biso   1.000  C
  H435     1.0000 0.37697  0.41783  0.31603  Biso   1.000  H
  C389     1.0000 0.42657  0.42513  0.33763  Biso   1.000  C
  C390     1.0000 0.44867  0.41203  0.30753  Biso   1.000  C
  C391     1.0000 0.43637  0.38273  0.23523  Biso   1.000  C
  C392     1.0000 0.40197  0.36653  0.19303  Biso   1.000  C
  H436     1.0000 0.39367  0.34653  0.14363  Biso   1.000  H
  C393     1.0000 0.46887  0.35123  0.31233  Biso   1.000  C
  H437     1.0000 0.48057  0.36993  0.37093  Biso   1.000  H
  H438     1.0000 0.44707  0.33173  0.34483  Biso   1.000  H
  H439     1.0000 0.48487  0.34253  0.28953  Biso   1.000  H
  C394     1.0000 0.49337  0.39383  0.13763  Biso   1.000  C
  H440     1.0000 0.50637  0.41533  0.18453  Biso   1.000  H
  H441     1.0000 0.50867  0.38373  0.12263  Biso   1.000  H
  H442     1.0000 0.48647  0.39973  0.06373  Biso   1.000  H
  C395     1.0000 0.44217  0.33463  0.12253  Biso   1.000  C
  H443     1.0000 0.45857  0.32593  0.10683  Biso   1.000  H
  H444     1.0000 0.42067  0.31583  0.15923  Biso   1.000  H
  H445     1.0000 0.43587  0.34163  0.04943  Biso   1.000  H
  C396     1.0000 0.43687  0.45543  0.42273  Biso   1.000  C
  H446     1.0000 0.45767  0.47723  0.39333  Biso   1.000  H
  H447     1.0000 0.41707  0.46023  0.43213  Biso   1.000  H
  C397     1.0000 0.45197  0.47003  0.63653  Biso   1.000  C
  H448     1.0000 0.45267  0.45713  0.70723  Biso   1.000  H
  C398     1.0000 0.42177  0.47713  0.65623  Biso   1.000  C
  H449     1.0000 0.39887  0.45473  0.65763  Biso   1.000  H
  H450     1.0000 0.42107  0.49243  0.59413  Biso   1.000  H
  C399     1.0000 0.42947  0.49613  0.77593  Biso   1.000  C
  H451     1.0000 0.40967  0.50013  0.79633  Biso   1.000  H
  H452     1.0000 0.43087  0.48073  0.83633  Biso   1.000  H
  C400     1.0000 0.46257  0.53003  0.77473  Biso   1.000  C
  H453     1.0000 0.46687  0.54133  0.85213  Biso   1.000  H
  H454     1.0000 0.46107  0.54613  0.71723  Biso   1.000  H
  C401     1.0000 0.49297  0.52373  0.74293  Biso   1.000  C
  H455     1.0000 0.49687  0.51133  0.80813  Biso   1.000  H
  H456     1.0000 0.51477  0.54693  0.73373  Biso   1.000  H
  C402     1.0000 0.48697  0.50173  0.62953  Biso   1.000  C
  H457     1.0000 0.48697  0.51633  0.56263  Biso   1.000  H
  C403     1.0000 0.57517  0.50423  0.61323  Biso   1.000  C
  C404     1.0000 0.60707  0.52713  0.66743  Biso   1.000  C
  H458     1.0000 0.60867  0.54533  0.71663  Biso   1.000  H
  C405     1.0000 0.63647  0.52333  0.64963  Biso   1.000  C
  C406     1.0000 0.63397  0.49663  0.57763  Biso   1.000  C
  H459     1.0000 0.65407  0.49403  0.56543  Biso   1.000  H
  C407     1.0000 0.60217  0.47373  0.52333  Biso   1.000  C
  C408     1.0000 0.57277  0.47753  0.54113  Biso   1.000  C
  C409     1.0000 0.60067  0.44493  0.44573  Biso   1.000  C
  C410     1.0000 0.59057  0.44853  0.31403  Biso   1.000  C
  H460     1.0000 0.60777  0.47183  0.28373  Biso   1.000  H
  H461     1.0000 0.59087  0.43013  0.26623  Biso   1.000  H
  H462     1.0000 0.56687  0.44583  0.31223  Biso   1.000  H
  C411     1.0000 0.57457  0.40913  0.49633  Biso   1.000  C
  H463     1.0000 0.57347  0.39043  0.44613  Biso   1.000  H
  H464     1.0000 0.58217  0.40693  0.57393  Biso   1.000  H
  H465     1.0000 0.55107  0.40683  0.50013  Biso   1.000  H
  C412     1.0000 0.63727  0.44763  0.43583  Biso   1.000  C
  H466     1.0000 0.65437  0.47073  0.40343  Biso   1.000  H
  H467     1.0000 0.64527  0.44513  0.51293  Biso   1.000  H
  H468     1.0000 0.63557  0.42893  0.38483  Biso   1.000  H
  C413     1.0000 0.67157  0.54963  0.71473  Biso   1.000  C
  C414     1.0000 0.67387  0.57513  0.79173  Biso   1.000  C
  H469     1.0000 0.65367  0.57753  0.80613  Biso   1.000  H
  C415     1.0000 0.70557  0.59723  0.84773  Biso   1.000  C
  H470     1.0000 0.70717  0.61473  0.90043  Biso   1.000  H
  N45      1.0000 0.73517  0.59383  0.82673  Biso   1.000  N
  C416     1.0000 0.73277  0.56823  0.74963  Biso   1.000  C
  H471     1.0000 0.75297  0.56583  0.73523  Biso   1.000  H
  C417     1.0000 0.70107  0.54613  0.69363  Biso   1.000  C
  H472     1.0000 0.69947  0.52863  0.64093  Biso   1.000  H
  C418     1.0000 0.78017  0.51483  0.01853  Biso   1.000  C
  N46      1.0000 0.92107  0.52163  0.61013  Biso   1.000  N
  C419     1.0000 0.89977  0.50103  0.70093  Biso   1.000  C
  H473     1.0000 0.89967  0.48003  0.72263  Biso   1.000  H
  C420     1.0000 0.87847  0.51123  0.76003  Biso   1.000  C
  H474     1.0000 0.86397  0.49713  0.82203  Biso   1.000  H
  C421     1.0000 0.87857  0.54193  0.72823  Biso   1.000  C
  C422     1.0000 0.89987  0.56253  0.63743  Biso   1.000  C
  H475     1.0000 0.89987  0.58353  0.61573  Biso   1.000  H
  C423     1.0000 0.92117  0.55243  0.57843  Biso   1.000  C
  H476     1.0000 0.93567  0.56643  0.51633  Biso   1.000  H
  C424     1.0000 0.78627  0.53353  0.13583  Biso   1.000  C
  H477     1.0000 0.80977  0.53993  0.16513  Biso   1.000  H
  H478     1.0000 0.78457  0.55493  0.12633  Biso   1.000  H
  H479     1.0000 0.76827  0.51763  0.19123  Biso   1.000  H
  C425     1.0000 0.85577  0.55373  0.79513  Biso   1.000  C
  C426     1.0000 0.85897  0.58643  0.77143  Biso   1.000  C
  H480     1.0000 0.87597  0.60193  0.71713  Biso   1.000  H
  C427     1.0000 0.83697  0.59633  0.82713  Biso   1.000  C
  C428     1.0000 0.81197  0.57363  0.90653  Biso   1.000  C
  C429     1.0000 0.80887  0.54093  0.93023  Biso   1.000  C
  C430     1.0000 0.83077  0.53103  0.87453  Biso   1.000  C
  H481     1.0000 0.82867  0.50873  0.89073  Biso   1.000  H
  C431     1.0000 0.74407  0.50553  0.97693  Biso   1.000  C
  H482     1.0000 0.74287  0.52713  0.96633  Biso   1.000  H
  H483     1.0000 0.73917  0.49283  0.90293  Biso   1.000  H
  H484     1.0000 0.72637  0.49033  0.03443  Biso   1.000  H
  C432     1.0000 0.78077  0.48033  0.03403  Biso   1.000  C
  H485     1.0000 0.80417  0.48563  0.06123  Biso   1.000  H
  H486     1.0000 0.76277  0.46533  0.09103  Biso   1.000  H
  H487     1.0000 0.77577  0.46793  0.95953  Biso   1.000  H
  C433     1.0000 0.84107  0.63043  0.78373  Biso   1.000  C
  H488     1.0000 0.86137  0.64523  0.73853  Biso   1.000  H
  C434     1.0000 0.82427  0.67383  0.74763  Biso   1.000  C
  H489     1.0000 0.80357  0.66673  0.69523  Biso   1.000  H
  C435     1.0000 0.85687  0.69553  0.67563  Biso   1.000  C
  H490     1.0000 0.87807  0.70433  0.72583  Biso   1.000  H
  H491     1.0000 0.85847  0.68033  0.61503  Biso   1.000  H
  C436     1.0000 0.85677  0.72563  0.62033  Biso   1.000  C
  H492     1.0000 0.83777  0.71673  0.56123  Biso   1.000  H
  H493     1.0000 0.87957  0.74023  0.58023  Biso   1.000  H
  C437     1.0000 0.85077  0.74953  0.71213  Biso   1.000  C
  H494     1.0000 0.87237  0.76283  0.75963  Biso   1.000  H
  H495     1.0000 0.84667  0.76693  0.66983  Biso   1.000  H
  C438     1.0000 0.82127  0.72913  0.78753  Biso   1.000  C
  H496     1.0000 0.79907  0.72033  0.74253  Biso   1.000  H
  H497     1.0000 0.82107  0.74463  0.84973  Biso   1.000  H
  C439     1.0000 0.82177  0.69713  0.84363  Biso   1.000  C
  H498     1.0000 0.84317  0.70623  0.89443  Biso   1.000  H
  C440     1.0000 0.78997  0.68993  0.03143  Biso   1.000  C
  H499     1.0000 0.81057  0.69263  0.07633  Biso   1.000  H
  H500     1.0000 0.79327  0.71383  0.01913  Biso   1.000  H
  C441     1.0000 0.75757  0.66873  0.09963  Biso   1.000  C
  C442     1.0000 0.74347  0.63303  0.12473  Biso   1.000  C
  C443     1.0000 0.71333  0.61549  0.19283  Biso   1.000  C
  C444     1.0000 0.69707  0.63363  0.23563  Biso   1.000  C
  H501     1.0000 0.67647  0.62163  0.28213  Biso   1.000  H
  C445     1.0000 0.71111  0.66933  0.21043  Biso   1.000  C
  C446     1.0000 0.74129  0.68685  0.14243  Biso   1.000  C
  H502     1.0000 0.75087  0.71123  0.12523  Biso   1.000  H
  C447     1.0000 0.69627  0.57513  0.22433  Biso   1.000  C
  C448     1.0000 0.54737  0.51033  0.62953  Biso   1.000  C
  H503     1.0000 0.55377  0.53243  0.66453  Biso   1.000  H
  C449     1.0000 0.72337  0.56793  0.28653  Biso   1.000  C
  H504     1.0000 0.74477  0.57693  0.23903  Biso   1.000  H
  H505     1.0000 0.72937  0.57983  0.36203  Biso   1.000  H
  H506     1.0000 0.71307  0.54243  0.29803  Biso   1.000  H
  C450     1.0000 0.68797  0.55243  0.11433  Biso   1.000  C
  H507     1.0000 0.70917  0.56143  0.06623  Biso   1.000  H
  H508     1.0000 0.67987  0.52783  0.13603  Biso   1.000  H
  H509     1.0000 0.66927  0.55343  0.07013  Biso   1.000  H
  C451     1.0000 0.66317  0.56103  0.29893  Biso   1.000  C
  H510     1.0000 0.66847  0.57553  0.36913  Biso   1.000  H
  H511     1.0000 0.64447  0.56203  0.25493  Biso   1.000  H
  H512     1.0000 0.65507  0.53643  0.32073  Biso   1.000  H
  C452     1.0000 0.69107  0.68933  0.25113  Biso   1.000  C
  C453     1.0000 0.70787  0.72583  0.23683  Biso   1.000  C
  H513     1.0000 0.73107  0.73823  0.20493  Biso   1.000  H
  C454     1.0000 0.69077  0.74413  0.26923  Biso   1.000  C
  H514     1.0000 0.70227  0.76903  0.25953  Biso   1.000  H
  N47      1.0000 0.65687  0.72593  0.31593  Biso   1.000  N
  C455     1.0000 0.64017  0.68943  0.33023  Biso   1.000  C
  H515     1.0000 0.61697  0.67703  0.36213  Biso   1.000  H
  C456     1.0000 0.65737  0.67123  0.29783  Biso   1.000  C
  H516     1.0000 0.64577  0.64623  0.30753  Biso   1.000  H
  N48      1.0000 0.81937  0.64083  0.80313  Biso   1.000  N
  Zn13     1.0000 0.22193  0.38296  0.84353  Biso   1.000  Zn
  Zn14     1.0000 0.04567  0.49204  0.26135  Biso   1.000  Zn
  N49      1.0000 0.22153  0.33357  0.86917  Biso   1.000  N
  N50      1.0000 0.17563  0.35577  0.93857  Biso   1.000  N
  N51      1.0000 0.99273  0.44887  0.24887  Biso   1.000  N
  O25      1.0000 0.23763  0.38657  0.68067  Biso   1.000  O
  O26      1.0000 0.21233  0.42237  0.82287  Biso   1.000  O
  O27      1.0000 0.08313  0.54207  0.29537  Biso   1.000  O
  O28      1.0000 0.05083  0.47767  0.41567  Biso   1.000  O
  N52      1.0000 0.33953  0.27717  0.44717  Biso   1.000  N
  C457     1.0000 0.35683  0.31377  0.43997  Biso   1.000  C
  H517     1.0000 0.38043  0.32647  0.41177  Biso   1.000  H
  C458     1.0000 0.33973  0.33197  0.47407  Biso   1.000  C
  H518     1.0000 0.35163  0.35697  0.46917  Biso   1.000  H
  C459     1.0000 0.30523  0.31337  0.51537  Biso   1.000  C
  C460     1.0000 0.28783  0.27667  0.52257  Biso   1.000  C
  H519     1.0000 0.26423  0.26397  0.55077  Biso   1.000  H
  C461     1.0000 0.30493  0.25857  0.48847  Biso   1.000  C
  H520     1.0000 0.29313  0.23347  0.49337  Biso   1.000  H
  C462     1.0000 0.30003  0.42657  0.53727  Biso   1.000  C
  C463     1.0000 0.28703  0.33357  0.55647  Biso   1.000  C
  C464     1.0000 0.25773  0.31657  0.62877  Biso   1.000  C
  H521     1.0000 0.24883  0.29247  0.64937  Biso   1.000  H
  C465     1.0000 0.24153  0.33477  0.67097  Biso   1.000  C
  C466     1.0000 0.25463  0.36997  0.64087  Biso   1.000  C
  C467     1.0000 0.28393  0.38697  0.56857  Biso   1.000  C
  C468     1.0000 0.30013  0.36877  0.52637  Biso   1.000  C
  H522     1.0000 0.32013  0.38047  0.47697  Biso   1.000  H
  C469     1.0000 0.31543  0.45097  0.64567  Biso   1.000  C
  H523     1.0000 0.29673  0.44397  0.70427  Biso   1.000  H
  H524     1.0000 0.33493  0.44867  0.67817  Biso   1.000  H
  H525     1.0000 0.32413  0.47567  0.62287  Biso   1.000  H
  C470     1.0000 0.27283  0.43287  0.47097  Biso   1.000  C
  H526     1.0000 0.25133  0.42437  0.51787  Biso   1.000  H
  H527     1.0000 0.28293  0.45827  0.45597  Biso   1.000  H
  H528     1.0000 0.26693  0.42007  0.39707  Biso   1.000  H
  C471     1.0000 0.33203  0.44087  0.45587  Biso   1.000  C
  H529     1.0000 0.34073  0.46597  0.44017  Biso   1.000  H
  H530     1.0000 0.35083  0.43817  0.49257  Biso   1.000  H
  H531     1.0000 0.32503  0.42757  0.38277  Biso   1.000  H
  C472     1.0000 0.21123  0.31477  0.75607  Biso   1.000  C
  H532     1.0000 0.18943  0.31377  0.72667  Biso   1.000  H
  H533     1.0000 0.20643  0.29017  0.76547  Biso   1.000  H
  C473     1.0000 0.19663  0.31527  0.96987  Biso   1.000  C
  H534     1.0000 0.20953  0.32887  0.04057  Biso   1.000  H
  C474     1.0000 0.18953  0.27797  0.98957  Biso   1.000  C
  H535     1.0000 0.21193  0.27747  0.99097  Biso   1.000  H
  H536     1.0000 0.17423  0.26197  0.92747  Biso   1.000  H
  C475     1.0000 0.17053  0.26667  0.10927  Biso   1.000  C
  H537     1.0000 0.16653  0.24287  0.12967  Biso   1.000  H
  H538     1.0000 0.18593  0.28347  0.16967  Biso   1.000  H
  C476     1.0000 0.13663  0.26587  0.10807  Biso   1.000  C
  H539     1.0000 0.12533  0.25887  0.18547  Biso   1.000  H
  H540     1.0000 0.12053  0.24827  0.05057  Biso   1.000  H
  C477     1.0000 0.14293  0.30257  0.07627  Biso   1.000  C
  H541     1.0000 0.15533  0.31887  0.14147  Biso   1.000  H
  H542     1.0000 0.11973  0.30117  0.06707  Biso   1.000  H
  C478     1.0000 0.16493  0.31857  0.96287  Biso   1.000  C
  H543     1.0000 0.15033  0.30397  0.89597  Biso   1.000  H
  C479     1.0000 0.16243  0.40427  0.94657  Biso   1.000  C
  C480     1.0000 0.13953  0.41327  0.00077  Biso   1.000  C
  H544     1.0000 0.12133  0.39667  0.04997  Biso   1.000  H
  C481     1.0000 0.14333  0.44647  0.98297  Biso   1.000  C
  C482     1.0000 0.17003  0.47067  0.91097  Biso   1.000  C
  H545     1.0000 0.17263  0.49337  0.89877  Biso   1.000  H
  C483     1.0000 0.19293  0.46177  0.85667  Biso   1.000  C
  C484     1.0000 0.18913  0.42857  0.87447  Biso   1.000  C
  C485     1.0000 0.22173  0.48907  0.77907  Biso   1.000  C
  C486     1.0000 0.21813  0.47537  0.64737  Biso   1.000  C
  H546     1.0000 0.19483  0.46927  0.61707  Biso   1.000  H
  H547     1.0000 0.23653  0.49407  0.59957  Biso   1.000  H
  H548     1.0000 0.22083  0.45437  0.64557  Biso   1.000  H
  C487     1.0000 0.25753  0.49877  0.82967  Biso   1.000  C
  H549     1.0000 0.27623  0.51637  0.77947  Biso   1.000  H
  H550     1.0000 0.25973  0.50857  0.90727  Biso   1.000  H
  H551     1.0000 0.25983  0.47757  0.83347  Biso   1.000  H
  C488     1.0000 0.21903  0.52297  0.76917  Biso   1.000  C
  H552     1.0000 0.19593  0.51697  0.73677  Biso   1.000  H
  H553     1.0000 0.22153  0.53347  0.84627  Biso   1.000  H
  H554     1.0000 0.23773  0.53997  0.71817  Biso   1.000  H
  C489     1.0000 0.11703  0.45527  0.04807  Biso   1.000  C
  C490     1.0000 0.09153  0.43207  0.12507  Biso   1.000  C
  H555     1.0000 0.08913  0.40947  0.13947  Biso   1.000  H
  C491     1.0000 0.06943  0.44167  0.18107  Biso   1.000  C
  H556     1.0000 0.05193  0.42577  0.23377  Biso   1.000  H
  N53      1.0000 0.07283  0.47467  0.16007  Biso   1.000  N
  C492     1.0000 0.09843  0.49787  0.08297  Biso   1.000  C
  H557     1.0000 0.10083  0.52047  0.06857  Biso   1.000  H
  C493     1.0000 0.12053  0.48827  0.02697  Biso   1.000  C
  H558     1.0000 0.13803  0.50417  0.97427  Biso   1.000  H
  C494     1.0000 0.15183  0.59867  0.35187  Biso   1.000  C
  N54      1.0000 0.14503  0.73277  0.94347  Biso   1.000  N
  C495     1.0000 0.16563  0.73207  0.03427  Biso   1.000  C
  H559     1.0000 0.18663  0.75297  0.05597  Biso   1.000  H
  C496     1.0000 0.15543  0.70057  0.09337  Biso   1.000  C
  H560     1.0000 0.16953  0.70017  0.15537  Biso   1.000  H
  C497     1.0000 0.12473  0.66997  0.06157  Biso   1.000  C
  C498     1.0000 0.10413  0.67067  0.97077  Biso   1.000  C
  H561     1.0000 0.08313  0.64967  0.94907  Biso   1.000  H
  C499     1.0000 0.11423  0.70207  0.91177  Biso   1.000  C
  H562     1.0000 0.10023  0.70257  0.84967  Biso   1.000  H
  C500     1.0000 0.13313  0.58607  0.46917  Biso   1.000  C
  H563     1.0000 0.12673  0.60317  0.49847  Biso   1.000  H
  H564     1.0000 0.11173  0.56297  0.45967  Biso   1.000  H
  H565     1.0000 0.14903  0.58397  0.52457  Biso   1.000  H
  C501     1.0000 0.11293  0.63537  0.12847  Biso   1.000  C
  C502     1.0000 0.08023  0.60587  0.10477  Biso   1.000  C
  H566     1.0000 0.06473  0.60737  0.05047  Biso   1.000  H
  C503     1.0000 0.07033  0.57397  0.16047  Biso   1.000  C
  C504     1.0000 0.09303  0.57167  0.23987  Biso   1.000  C
  C505     1.0000 0.12573  0.60127  0.26357  Biso   1.000  C
  C506     1.0000 0.13563  0.63307  0.20787  Biso   1.000  C
  H567     1.0000 0.15793  0.65327  0.22407  Biso   1.000  H
  C507     1.0000 0.16113  0.57187  0.31027  Biso   1.000  C
  H568     1.0000 0.13953  0.54907  0.29967  Biso   1.000  H
  H569     1.0000 0.17383  0.57967  0.23627  Biso   1.000  H
  H570     1.0000 0.17633  0.56937  0.36777  Biso   1.000  H
  C508     1.0000 0.18633  0.63377  0.36737  Biso   1.000  C
  H571     1.0000 0.18103  0.65187  0.39457  Biso   1.000  H
  H572     1.0000 0.20133  0.63077  0.42437  Biso   1.000  H
  H573     1.0000 0.19873  0.64117  0.29287  Biso   1.000  H
  C509     1.0000 0.03623  0.54397  0.11707  Biso   1.000  C
  H574     1.0000 0.02143  0.54947  0.07187  Biso   1.000  H
  C510     1.0000 0.99283  0.48377  0.08097  Biso   1.000  C
  H575     1.0000 0.99993  0.47017  0.02857  Biso   1.000  H
  C511     1.0000 0.97113  0.49467  0.00897  Biso   1.000  C
  H576     1.0000 0.96233  0.50707  0.05917  Biso   1.000  H
  H577     1.0000 0.98633  0.51147  0.94837  Biso   1.000  H
  C512     1.0000 0.94103  0.46447  0.95367  Biso   1.000  C
  H578     1.0000 0.94993  0.45437  0.89457  Biso   1.000  H
  H579     1.0000 0.92643  0.47267  0.91357  Biso   1.000  H
  C513     1.0000 0.91713  0.43457  0.04547  Biso   1.000  C
  H580     1.0000 0.90383  0.44287  0.09297  Biso   1.000  H
  H581     1.0000 0.89973  0.41307  0.00317  Biso   1.000  H
  C514     1.0000 0.93753  0.42547  0.12087  Biso   1.000  C
  H582     1.0000 0.94633  0.41207  0.07587  Biso   1.000  H
  H583     1.0000 0.92203  0.40977  0.18307  Biso   1.000  H
  C515     1.0000 0.96953  0.45797  0.17697  Biso   1.000  C
  H584     1.0000 0.96043  0.47027  0.22777  Biso   1.000  H
  C516     1.0000 0.97673  0.43337  0.36477  Biso   1.000  C
  H585     1.0000 0.97403  0.45127  0.40967  Biso   1.000  H
  H586     1.0000 0.95283  0.41277  0.35247  Biso   1.000  H
  C517     1.0000 0.99793  0.42217  0.43297  Biso   1.000  C
  C518     1.0000 0.03363  0.44377  0.45807  Biso   1.000  C
  C519     1.0000 0.05117  0.43117  0.52617  Biso   1.000  C
  C520     1.0000 0.03303  0.39677  0.56897  Biso   1.000  C
  H587     1.0000 0.04503  0.38817  0.61547  Biso   1.000  H
  C521     1.0000 0.99733  0.37511  0.54377  Biso   1.000  C
  C522     1.0000 0.97981  0.38777  0.47577  Biso   1.000  C
  H588     1.0000 0.95543  0.37297  0.45857  Biso   1.000  H
  C523     1.0000 0.09153  0.45447  0.55767  Biso   1.000  C
  C524     1.0000 0.15633  0.37037  0.96287  Biso   1.000  C
  H589     1.0000 0.13423  0.35467  0.99787  Biso   1.000  H
  C525     1.0000 0.09873  0.48877  0.61987  Biso   1.000  C
  H590     1.0000 0.08973  0.50117  0.57237  Biso   1.000  H
  H591     1.0000 0.08683  0.48287  0.69537  Biso   1.000  H
  H592     1.0000 0.12423  0.50397  0.63137  Biso   1.000  H
  C526     1.0000 0.11423  0.46887  0.44767  Biso   1.000  C
  H593     1.0000 0.10523  0.48107  0.39957  Biso   1.000  H
  H594     1.0000 0.13883  0.48537  0.46937  Biso   1.000  H
  H595     1.0000 0.11323  0.44917  0.40347  Biso   1.000  H
  C527     1.0000 0.10563  0.43547  0.63227  Biso   1.000  C
  H596     1.0000 0.09113  0.42627  0.70247  Biso   1.000  H
  H597     1.0000 0.10463  0.41577  0.58827  Biso   1.000  H
  H598     1.0000 0.13023  0.45197  0.65407  Biso   1.000  H
  C528     1.0000 0.97733  0.33507  0.58447  Biso   1.000  C
  C529     1.0000 0.94083  0.31537  0.57017  Biso   1.000  C
  H599     1.0000 0.92843  0.32617  0.53827  Biso   1.000  H
  C530     1.0000 0.92253  0.27997  0.60257  Biso   1.000  C
  H600     1.0000 0.89763  0.26657  0.59287  Biso   1.000  H
  N55      1.0000 0.94073  0.26427  0.64927  Biso   1.000  N
  C531     1.0000 0.97723  0.28407  0.66357  Biso   1.000  C
  H601     1.0000 0.98963  0.27327  0.69547  Biso   1.000  H
  C532     1.0000 0.99543  0.31947  0.63117  Biso   1.000  C
  H602     1.0000 0.02043  0.33287  0.64087  Biso   1.000  H
  N56      1.0000 0.02583  0.51187  0.13647  Biso   1.000  N
  Zn15     1.0000 0.61704  0.83898  0.84353  Biso   1.000  Zn
  Zn16     1.0000 0.50796  0.55364  0.26135  Biso   1.000  Zn
  N57      1.0000 0.66643  0.88797  0.86917  Biso   1.000  N
  N58      1.0000 0.64423  0.81987  0.93857  Biso   1.000  N
  N59      1.0000 0.55113  0.54387  0.24887  Biso   1.000  N
  O29      1.0000 0.61343  0.85107  0.68067  Biso   1.000  O
  O30      1.0000 0.57763  0.78997  0.82287  Biso   1.000  O
  O31      1.0000 0.45793  0.54107  0.29537  Biso   1.000  O
  O32      1.0000 0.52233  0.57317  0.41567  Biso   1.000  O
  N60      1.0000 0.72283  0.06237  0.44717  Biso   1.000  N
  C533     1.0000 0.68623  0.04307  0.43997  Biso   1.000  C
  H603     1.0000 0.67353  0.05397  0.41177  Biso   1.000  H
  C534     1.0000 0.66803  0.00777  0.47407  Biso   1.000  C
  H604     1.0000 0.64303  0.99467  0.46917  Biso   1.000  H
  C535     1.0000 0.68663  0.99187  0.51537  Biso   1.000  C
  C536     1.0000 0.72333  0.01117  0.52257  Biso   1.000  C
  H605     1.0000 0.73603  0.00027  0.55077  Biso   1.000  H
  C537     1.0000 0.74143  0.04637  0.48847  Biso   1.000  C
  H606     1.0000 0.76653  0.05967  0.49337  Biso   1.000  H
  C538     1.0000 0.57343  0.87347  0.53727  Biso   1.000  C
  C539     1.0000 0.66643  0.95347  0.55647  Biso   1.000  C
  C540     1.0000 0.68343  0.94117  0.62877  Biso   1.000  C
  H607     1.0000 0.70753  0.95637  0.64937  Biso   1.000  H
  C541     1.0000 0.66523  0.90677  0.67097  Biso   1.000  C
  C542     1.0000 0.63003  0.88467  0.64087  Biso   1.000  C
  C543     1.0000 0.61303  0.89697  0.56857  Biso   1.000  C
  C544     1.0000 0.63123  0.93137  0.52637  Biso   1.000  C
  H608     1.0000 0.61953  0.93967  0.47697  Biso   1.000  H
  C545     1.0000 0.54903  0.86447  0.64567  Biso   1.000  C
  H609     1.0000 0.55603  0.85277  0.70427  Biso   1.000  H
  H610     1.0000 0.55133  0.88627  0.67817  Biso   1.000  H
  H611     1.0000 0.52433  0.84847  0.62287  Biso   1.000  H
  C546     1.0000 0.56713  0.83997  0.47097  Biso   1.000  C
  H612     1.0000 0.57563  0.82697  0.51787  Biso   1.000  H
  H613     1.0000 0.54173  0.82467  0.45597  Biso   1.000  H
  H614     1.0000 0.57993  0.84687  0.39707  Biso   1.000  H
  C547     1.0000 0.55913  0.89117  0.45587  Biso   1.000  C
  H615     1.0000 0.53403  0.87477  0.44017  Biso   1.000  H
  H616     1.0000 0.56183  0.91267  0.49257  Biso   1.000  H
  H617     1.0000 0.57243  0.89747  0.38277  Biso   1.000  H
  C548     1.0000 0.68523  0.89647  0.75607  Biso   1.000  C
  H618     1.0000 0.68623  0.87567  0.72667  Biso   1.000  H
  H619     1.0000 0.70983  0.91627  0.76547  Biso   1.000  H
  C549     1.0000 0.68473  0.88137  0.96987  Biso   1.000  C
  H620     1.0000 0.67113  0.88067  0.04057  Biso   1.000  H
  C550     1.0000 0.72203  0.91157  0.98957  Biso   1.000  C
  H621     1.0000 0.72253  0.93447  0.99097  Biso   1.000  H
  H622     1.0000 0.73803  0.91227  0.92747  Biso   1.000  H
  C551     1.0000 0.73333  0.90387  0.10927  Biso   1.000  C
  H623     1.0000 0.75713  0.92367  0.12967  Biso   1.000  H
  H624     1.0000 0.71653  0.90247  0.16967  Biso   1.000  H
  C552     1.0000 0.73413  0.87077  0.10807  Biso   1.000  C
  H625     1.0000 0.74113  0.86647  0.18547  Biso   1.000  H
  H626     1.0000 0.75173  0.87227  0.05057  Biso   1.000  H
  C553     1.0000 0.69743  0.84037  0.07627  Biso   1.000  C
  H627     1.0000 0.68113  0.83647  0.14147  Biso   1.000  H
  H628     1.0000 0.69883  0.81857  0.06707  Biso   1.000  H
  C554     1.0000 0.68143  0.84637  0.96287  Biso   1.000  C
  H629     1.0000 0.69603  0.84637  0.89597  Biso   1.000  H
  C555     1.0000 0.59573  0.75817  0.94657  Biso   1.000  C
  C556     1.0000 0.58673  0.72627  0.00077  Biso   1.000  C
  H630     1.0000 0.60333  0.72467  0.04997  Biso   1.000  H
  C557     1.0000 0.55353  0.69687  0.98297  Biso   1.000  C
  C558     1.0000 0.52933  0.69937  0.91097  Biso   1.000  C
  H631     1.0000 0.50663  0.67927  0.89877  Biso   1.000  H
  C559     1.0000 0.53823  0.73117  0.85667  Biso   1.000  C
  C560     1.0000 0.57143  0.76057  0.87447  Biso   1.000  C
  C561     1.0000 0.51093  0.73267  0.77907  Biso   1.000  C
  C562     1.0000 0.52463  0.74277  0.64737  Biso   1.000  C
  H632     1.0000 0.53073  0.72557  0.61707  Biso   1.000  H
  H633     1.0000 0.50593  0.74247  0.59957  Biso   1.000  H
  H634     1.0000 0.54563  0.76647  0.64557  Biso   1.000  H
  C563     1.0000 0.50123  0.75877  0.82967  Biso   1.000  C
  H635     1.0000 0.48363  0.75987  0.77947  Biso   1.000  H
  H636     1.0000 0.49143  0.75117  0.90727  Biso   1.000  H
  H637     1.0000 0.52243  0.78227  0.83347  Biso   1.000  H
  C564     1.0000 0.47703  0.69607  0.76917  Biso   1.000  C
  H638     1.0000 0.48303  0.67897  0.73677  Biso   1.000  H
  H639     1.0000 0.46653  0.68807  0.84627  Biso   1.000  H
  H640     1.0000 0.46003  0.69777  0.71817  Biso   1.000  H
  C565     1.0000 0.54473  0.66177  0.04807  Biso   1.000  C
  C566     1.0000 0.56793  0.65947  0.12507  Biso   1.000  C
  H641     1.0000 0.59053  0.67967  0.13947  Biso   1.000  H
  C567     1.0000 0.55833  0.62777  0.18107  Biso   1.000  C
  H642     1.0000 0.57423  0.62617  0.23377  Biso   1.000  H
  N61      1.0000 0.52533  0.59817  0.16007  Biso   1.000  N
  C568     1.0000 0.50213  0.60057  0.08297  Biso   1.000  C
  H643     1.0000 0.47953  0.58037  0.06857  Biso   1.000  H
  C569     1.0000 0.51173  0.63227  0.02697  Biso   1.000  C
  H644     1.0000 0.49583  0.63387  0.97427  Biso   1.000  H
  C570     1.0000 0.40133  0.55317  0.35187  Biso   1.000  C
  N62      1.0000 0.26723  0.41227  0.94347  Biso   1.000  N
  C571     1.0000 0.26793  0.43357  0.03427  Biso   1.000  C
  H645     1.0000 0.24703  0.43367  0.05597  Biso   1.000  H
  C572     1.0000 0.29943  0.45487  0.09337  Biso   1.000  C
  H646     1.0000 0.29983  0.46937  0.15537  Biso   1.000  H
  C573     1.0000 0.33003  0.45477  0.06157  Biso   1.000  C
  C574     1.0000 0.32933  0.43347  0.97077  Biso   1.000  C
  H647     1.0000 0.35033  0.43347  0.94907  Biso   1.000  H
  C575     1.0000 0.29793  0.41217  0.91177  Biso   1.000  C
  H648     1.0000 0.29743  0.39767  0.84967  Biso   1.000  H
  C576     1.0000 0.41393  0.54707  0.46917  Biso   1.000  C
  H649     1.0000 0.39683  0.52357  0.49847  Biso   1.000  H
  H650     1.0000 0.43703  0.54877  0.45967  Biso   1.000  H
  H651     1.0000 0.41603  0.56507  0.52457  Biso   1.000  H
  C577     1.0000 0.36463  0.47757  0.12847  Biso   1.000  C
  C578     1.0000 0.39413  0.47437  0.10477  Biso   1.000  C
  H652     1.0000 0.39263  0.45737  0.05047  Biso   1.000  H
  C579     1.0000 0.42603  0.49637  0.16047  Biso   1.000  C
  C580     1.0000 0.42833  0.52137  0.23987  Biso   1.000  C
  C581     1.0000 0.39873  0.52447  0.26357  Biso   1.000  C
  C582     1.0000 0.36693  0.50257  0.20787  Biso   1.000  C
  H653     1.0000 0.34673  0.50467  0.22407  Biso   1.000  H
  C583     1.0000 0.42813  0.58927  0.31027  Biso   1.000  C
  H654     1.0000 0.45093  0.59047  0.29967  Biso   1.000  H
  H655     1.0000 0.42033  0.59417  0.23627  Biso   1.000  H
  H656     1.0000 0.43063  0.60697  0.36777  Biso   1.000  H
  C584     1.0000 0.36623  0.55257  0.36737  Biso   1.000  C
  H657     1.0000 0.34813  0.52917  0.39457  Biso   1.000  H
  H658     1.0000 0.36923  0.57057  0.42437  Biso   1.000  H
  H659     1.0000 0.35883  0.55757  0.29287  Biso   1.000  H
  C585     1.0000 0.45603  0.49227  0.11707  Biso   1.000  C
  H660     1.0000 0.45053  0.47197  0.07187  Biso   1.000  H
  C586     1.0000 0.51623  0.50907  0.08097  Biso   1.000  C
  H661     1.0000 0.52983  0.52977  0.02857  Biso   1.000  H
  C587     1.0000 0.50533  0.47647  0.00897  Biso   1.000  C
  H662     1.0000 0.49293  0.45527  0.05917  Biso   1.000  H
  H663     1.0000 0.48853  0.47487  0.94837  Biso   1.000  H
  C588     1.0000 0.53553  0.47657  0.95367  Biso   1.000  C
  H664     1.0000 0.54563  0.49557  0.89457  Biso   1.000  H
  H665     1.0000 0.52733  0.45377  0.91357  Biso   1.000  H
  C589     1.0000 0.56543  0.48257  0.04547  Biso   1.000  C
  H666     1.0000 0.55713  0.46097  0.09297  Biso   1.000  H
  H667     1.0000 0.58693  0.48667  0.00317  Biso   1.000  H
  C590     1.0000 0.57453  0.51207  0.12087  Biso   1.000  C
  H668     1.0000 0.58793  0.53427  0.07587  Biso   1.000  H
  H669     1.0000 0.59023  0.51227  0.18307  Biso   1.000  H
  C591     1.0000 0.54203  0.51157  0.17697  Biso   1.000  C
  H670     1.0000 0.52973  0.49017  0.22777  Biso   1.000  H
  C592     1.0000 0.56663  0.54337  0.36477  Biso   1.000  C
  H671     1.0000 0.54873  0.52277  0.40967  Biso   1.000  H
  H672     1.0000 0.58723  0.54007  0.35247  Biso   1.000  H
  C593     1.0000 0.57783  0.57577  0.43297  Biso   1.000  C
  C594     1.0000 0.55623  0.58987  0.45807  Biso   1.000  C
  C595     1.0000 0.56883  0.62001  0.52617  Biso   1.000  C
  C596     1.0000 0.60323  0.63627  0.56897  Biso   1.000  C
  H673     1.0000 0.61183  0.65687  0.61547  Biso   1.000  H
  C597     1.0000 0.62489  0.62223  0.54377  Biso   1.000  C
  C598     1.0000 0.61223  0.59205  0.47577  Biso   1.000  C
  H674     1.0000 0.62703  0.58247  0.45857  Biso   1.000  H
  C599     1.0000 0.54553  0.63707  0.55767  Biso   1.000  C
  C600     1.0000 0.62963  0.78597  0.96287  Biso   1.000  C
  H675     1.0000 0.64533  0.77957  0.99787  Biso   1.000  H
  C601     1.0000 0.51123  0.60997  0.61987  Biso   1.000  C
  H676     1.0000 0.49883  0.58857  0.57237  Biso   1.000  H
  H677     1.0000 0.51713  0.60397  0.69537  Biso   1.000  H
  H678     1.0000 0.49603  0.62027  0.63137  Biso   1.000  H
  C602     1.0000 0.53113  0.64537  0.44767  Biso   1.000  C
  H679     1.0000 0.51893  0.62417  0.39957  Biso   1.000  H
  H680     1.0000 0.51463  0.65347  0.46937  Biso   1.000  H
  H681     1.0000 0.55083  0.66407  0.40347  Biso   1.000  H
  C603     1.0000 0.56453  0.67017  0.63227  Biso   1.000  C
  H682     1.0000 0.57373  0.66487  0.70247  Biso   1.000  H
  H683     1.0000 0.58423  0.68887  0.58827  Biso   1.000  H
  H684     1.0000 0.54803  0.67827  0.65407  Biso   1.000  H
  C604     1.0000 0.66493  0.64227  0.58447  Biso   1.000  C
  C605     1.0000 0.68463  0.62547  0.57017  Biso   1.000  C
  H685     1.0000 0.67383  0.60227  0.53827  Biso   1.000  H
  C606     1.0000 0.72003  0.64257  0.60257  Biso   1.000  C
  H686     1.0000 0.73343  0.63107  0.59287  Biso   1.000  H
  N63      1.0000 0.73573  0.67647  0.64927  Biso   1.000  N
  C607     1.0000 0.71593  0.69317  0.66357  Biso   1.000  C
  H687     1.0000 0.72673  0.71637  0.69547  Biso   1.000  H
  C608     1.0000 0.68053  0.67597  0.63117  Biso   1.000  C
  H688     1.0000 0.66713  0.68757  0.64087  Biso   1.000  H
  N64      1.0000 0.48813  0.51397  0.13647  Biso   1.000  N
  Zn17     1.0000 0.16102  0.77807  0.84353  Biso   1.000  Zn
  Zn18     1.0000 0.44636  0.95433  0.26135  Biso   1.000  Zn
  N65      1.0000 0.11203  0.77847  0.86917  Biso   1.000  N
  N66      1.0000 0.18013  0.82437  0.93857  Biso   1.000  N
  N67      1.0000 0.45613  0.00727  0.24887  Biso   1.000  N
  O33      1.0000 0.14893  0.76237  0.68067  Biso   1.000  O
  O34      1.0000 0.21003  0.78767  0.82287  Biso   1.000  O
  O35      1.0000 0.45893  0.91687  0.29537  Biso   1.000  O
  O36      1.0000 0.42683  0.94917  0.41567  Biso   1.000  O
  N68      1.0000 0.93763  0.66047  0.44717  Biso   1.000  N
  C609     1.0000 0.95693  0.64317  0.43997  Biso   1.000  C
  H689     1.0000 0.94603  0.61957  0.41177  Biso   1.000  H
  C610     1.0000 0.99223  0.66027  0.47407  Biso   1.000  C
  H690     1.0000 0.00533  0.64837  0.46917  Biso   1.000  H
  C611     1.0000 0.00813  0.69477  0.51537  Biso   1.000  C
  C612     1.0000 0.98883  0.71217  0.52257  Biso   1.000  C
  H691     1.0000 0.99973  0.73577  0.55077  Biso   1.000  H
  C613     1.0000 0.95363  0.69507  0.48847  Biso   1.000  C
  H692     1.0000 0.94033  0.70687  0.49337  Biso   1.000  H
  C614     1.0000 0.12653  0.69997  0.53727  Biso   1.000  C
  C615     1.0000 0.04653  0.71297  0.55647  Biso   1.000  C
  C616     1.0000 0.05883  0.74227  0.62877  Biso   1.000  C
  H693     1.0000 0.04363  0.75117  0.64937  Biso   1.000  H
  C617     1.0000 0.09323  0.75847  0.67097  Biso   1.000  C
  C618     1.0000 0.11533  0.74537  0.64087  Biso   1.000  C
  C619     1.0000 0.10303  0.71607  0.56857  Biso   1.000  C
  C620     1.0000 0.06863  0.69987  0.52637  Biso   1.000  C
  H694     1.0000 0.06033  0.67987  0.47697  Biso   1.000  H
  C621     1.0000 0.13553  0.68457  0.64567  Biso   1.000  C
  H695     1.0000 0.14723  0.70327  0.70427  Biso   1.000  H
  H696     1.0000 0.11373  0.66507  0.67817  Biso   1.000  H
  H697     1.0000 0.15153  0.67587  0.62287  Biso   1.000  H
  C622     1.0000 0.16003  0.72717  0.47097  Biso   1.000  C
  H698     1.0000 0.17303  0.74867  0.51787  Biso   1.000  H
  H699     1.0000 0.17533  0.71707  0.45597  Biso   1.000  H
  H700     1.0000 0.15313  0.73307  0.39707  Biso   1.000  H
  C623     1.0000 0.10883  0.66797  0.45587  Biso   1.000  C
  H701     1.0000 0.12523  0.65927  0.44017  Biso   1.000  H
  H702     1.0000 0.08733  0.64917  0.49257  Biso   1.000  H
  H703     1.0000 0.10253  0.67497  0.38277  Biso   1.000  H
  C624     1.0000 0.10353  0.78877  0.75607  Biso   1.000  C
  H704     1.0000 0.12433  0.81057  0.72667  Biso   1.000  H
  H705     1.0000 0.08373  0.79357  0.76547  Biso   1.000  H
  C625     1.0000 0.11863  0.80337  0.96987  Biso   1.000  C
  H706     1.0000 0.11933  0.79047  0.04057  Biso   1.000  H
  C626     1.0000 0.08843  0.81047  0.98957  Biso   1.000  C
  H707     1.0000 0.06553  0.78807  0.99097  Biso   1.000  H
  H708     1.0000 0.08773  0.82577  0.92747  Biso   1.000  H
  C627     1.0000 0.09613  0.82947  0.10927  Biso   1.000  C
  H709     1.0000 0.07633  0.83347  0.12967  Biso   1.000  H
  H710     1.0000 0.09753  0.81407  0.16967  Biso   1.000  H
  C628     1.0000 0.12923  0.86337  0.10807  Biso   1.000  C
  H711     1.0000 0.13353  0.87467  0.18547  Biso   1.000  H
  H712     1.0000 0.12773  0.87947  0.05057  Biso   1.000  H
  C629     1.0000 0.15963  0.85707  0.07627  Biso   1.000  C
  H713     1.0000 0.16353  0.84467  0.14147  Biso   1.000  H
  H714     1.0000 0.18143  0.88027  0.06707  Biso   1.000  H
  C630     1.0000 0.15363  0.83507  0.96287  Biso   1.000  C
  H715     1.0000 0.15363  0.84967  0.89597  Biso   1.000  H
  C631     1.0000 0.24183  0.83757  0.94657  Biso   1.000  C
  C632     1.0000 0.27373  0.86047  0.00077  Biso   1.000  C
  H716     1.0000 0.27533  0.87867  0.04997  Biso   1.000  H
  C633     1.0000 0.30313  0.85667  0.98297  Biso   1.000  C
  C634     1.0000 0.30063  0.82997  0.91097  Biso   1.000  C
  H717     1.0000 0.32073  0.82737  0.89877  Biso   1.000  H
  C635     1.0000 0.26883  0.80707  0.85667  Biso   1.000  C
  C636     1.0000 0.23943  0.81087  0.87447  Biso   1.000  C
  C637     1.0000 0.26733  0.77827  0.77907  Biso   1.000  C
  C638     1.0000 0.25723  0.78187  0.64737  Biso   1.000  C
  H718     1.0000 0.27443  0.80517  0.61707  Biso   1.000  H
  H719     1.0000 0.25753  0.76347  0.59957  Biso   1.000  H
  H720     1.0000 0.23353  0.77917  0.64557  Biso   1.000  H
  C639     1.0000 0.24123  0.74247  0.82967  Biso   1.000  C
  H721     1.0000 0.24013  0.72377  0.77947  Biso   1.000  H
  H722     1.0000 0.24883  0.74027  0.90727  Biso   1.000  H
  H723     1.0000 0.21773  0.74017  0.83347  Biso   1.000  H
  C640     1.0000 0.30393  0.78097  0.76917  Biso   1.000  C
  H724     1.0000 0.32103  0.80407  0.73677  Biso   1.000  H
  H725     1.0000 0.31193  0.77847  0.84627  Biso   1.000  H
  H726     1.0000 0.30223  0.76227  0.71817  Biso   1.000  H
  C641     1.0000 0.33823  0.88297  0.04807  Biso   1.000  C
  C642     1.0000 0.34053  0.90847  0.12507  Biso   1.000  C
  H727     1.0000 0.32033  0.91087  0.13947  Biso   1.000  H
  C643     1.0000 0.37223  0.93057  0.18107  Biso   1.000  C
  H728     1.0000 0.37383  0.94807  0.23377  Biso   1.000  H
  N69      1.0000 0.40183  0.92717  0.16007  Biso   1.000  N
  C644     1.0000 0.39943  0.90157  0.08297  Biso   1.000  C
  H729     1.0000 0.41963  0.89917  0.06857  Biso   1.000  H
  C645     1.0000 0.36773  0.87947  0.02697  Biso   1.000  C
  H730     1.0000 0.36613  0.86197  0.97427  Biso   1.000  H
  C646     1.0000 0.44683  0.84817  0.35187  Biso   1.000  C
  N70      1.0000 0.58773  0.85497  0.94347  Biso   1.000  N
  C647     1.0000 0.56643  0.83437  0.03427  Biso   1.000  C
  H731     1.0000 0.56633  0.81337  0.05597  Biso   1.000  H
  C648     1.0000 0.54513  0.84457  0.09337  Biso   1.000  C
  H732     1.0000 0.53063  0.83047  0.15537  Biso   1.000  H
  C649     1.0000 0.54523  0.87527  0.06157  Biso   1.000  C
  C650     1.0000 0.56653  0.89587  0.97077  Biso   1.000  C
  H733     1.0000 0.56653  0.91687  0.94907  Biso   1.000  H
  C651     1.0000 0.58783  0.88577  0.91177  Biso   1.000  C
  H734     1.0000 0.60233  0.89977  0.84967  Biso   1.000  H
  C652     1.0000 0.45293  0.86687  0.46917  Biso   1.000  C
  H735     1.0000 0.47643  0.87327  0.49847  Biso   1.000  H
  H736     1.0000 0.45123  0.88827  0.45967  Biso   1.000  H
  H737     1.0000 0.43493  0.85097  0.52457  Biso   1.000  H
  C653     1.0000 0.52243  0.88707  0.12847  Biso   1.000  C
  C654     1.0000 0.52563  0.91977  0.10477  Biso   1.000  C
  H738     1.0000 0.54263  0.93527  0.05047  Biso   1.000  H
  C655     1.0000 0.50363  0.92967  0.16047  Biso   1.000  C
  C656     1.0000 0.47863  0.90697  0.23987  Biso   1.000  C
  C657     1.0000 0.47553  0.87427  0.26357  Biso   1.000  C
  C658     1.0000 0.49743  0.86437  0.20787  Biso   1.000  C
  H739     1.0000 0.49533  0.84207  0.22407  Biso   1.000  H
  C659     1.0000 0.41073  0.83887  0.31027  Biso   1.000  C
  H740     1.0000 0.40953  0.86047  0.29967  Biso   1.000  H
  H741     1.0000 0.40583  0.82617  0.23627  Biso   1.000  H
  H742     1.0000 0.39303  0.82367  0.36777  Biso   1.000  H
  C660     1.0000 0.44743  0.81367  0.36737  Biso   1.000  C
  H743     1.0000 0.47083  0.81897  0.39457  Biso   1.000  H
  H744     1.0000 0.42943  0.79867  0.42437  Biso   1.000  H
  H745     1.0000 0.44243  0.80127  0.29287  Biso   1.000  H
  C661     1.0000 0.50773  0.96377  0.11707  Biso   1.000  C
  H746     1.0000 0.52803  0.97857  0.07187  Biso   1.000  H
  C662     1.0000 0.49093  0.00717  0.08097  Biso   1.000  C
  H747     1.0000 0.47023  0.00007  0.02857  Biso   1.000  H
  C663     1.0000 0.52353  0.02887  0.00897  Biso   1.000  C
  H748     1.0000 0.54473  0.03767  0.05917  Biso   1.000  H
  H749     1.0000 0.52513  0.01367  0.94837  Biso   1.000  H
  C664     1.0000 0.52343  0.05897  0.95367  Biso   1.000  C
  H750     1.0000 0.50443  0.05007  0.89457  Biso   1.000  H
  H751     1.0000 0.54623  0.07357  0.91357  Biso   1.000  H
  C665     1.0000 0.51743  0.08287  0.04547  Biso   1.000  C
  H752     1.0000 0.53903  0.09617  0.09297  Biso   1.000  H
  H753     1.0000 0.51333  0.10027  0.00317  Biso   1.000  H
  C666     1.0000 0.48793  0.06247  0.12087  Biso   1.000  C
  H754     1.0000 0.46573  0.05367  0.07587  Biso   1.000  H
  H755     1.0000 0.48773  0.07797  0.18307  Biso   1.000  H
  C667     1.0000 0.48843  0.03047  0.17697  Biso   1.000  C
  H756     1.0000 0.50983  0.03957  0.22777  Biso   1.000  H
  C668     1.0000 0.45663  0.02327  0.36477  Biso   1.000  C
  H757     1.0000 0.47723  0.02597  0.40967  Biso   1.000  H
  H758     1.0000 0.45993  0.04717  0.35247  Biso   1.000  H
  C669     1.0000 0.42423  0.00207  0.43297  Biso   1.000  C
  C670     1.0000 0.41013  0.96637  0.45807  Biso   1.000  C
  C671     1.0000 0.37999  0.94883  0.52617  Biso   1.000  C
  C672     1.0000 0.36373  0.96697  0.56897  Biso   1.000  C
  H759     1.0000 0.34313  0.95497  0.61547  Biso   1.000  H
  C673     1.0000 0.37777  0.00267  0.54377  Biso   1.000  C
  C674     1.0000 0.40795  0.02019  0.47577  Biso   1.000  C
  H760     1.0000 0.41753  0.04457  0.45857  Biso   1.000  H
  C675     1.0000 0.36293  0.90847  0.55767  Biso   1.000  C
  C676     1.0000 0.21403  0.84367  0.96287  Biso   1.000  C
  H761     1.0000 0.22043  0.86577  0.99787  Biso   1.000  H
  C677     1.0000 0.39003  0.90127  0.61987  Biso   1.000  C
  H762     1.0000 0.41143  0.91027  0.57237  Biso   1.000  H
  H763     1.0000 0.39603  0.91317  0.69537  Biso   1.000  H
  H764     1.0000 0.37973  0.87577  0.63137  Biso   1.000  H
  C678     1.0000 0.35463  0.88577  0.44767  Biso   1.000  C
  H765     1.0000 0.37583  0.89477  0.39957  Biso   1.000  H
  H766     1.0000 0.34653  0.86117  0.46937  Biso   1.000  H
  H767     1.0000 0.33593  0.88677  0.40347  Biso   1.000  H
  C679     1.0000 0.32983  0.89437  0.63227  Biso   1.000  C
  H768     1.0000 0.33513  0.90887  0.70247  Biso   1.000  H
  H769     1.0000 0.31113  0.89537  0.58827  Biso   1.000  H
  H770     1.0000 0.32173  0.86977  0.65407  Biso   1.000  H
  C680     1.0000 0.35773  0.02267  0.58447  Biso   1.000  C
  C681     1.0000 0.37453  0.05917  0.57017  Biso   1.000  C
  H771     1.0000 0.39773  0.07157  0.53827  Biso   1.000  H
  C682     1.0000 0.35743  0.07747  0.60257  Biso   1.000  C
  H772     1.0000 0.36893  0.10237  0.59287  Biso   1.000  H
  N71      1.0000 0.32353  0.05927  0.64927  Biso   1.000  N
  C683     1.0000 0.30683  0.02277  0.66357  Biso   1.000  C
  H773     1.0000 0.28363  0.01037  0.69547  Biso   1.000  H
  C684     1.0000 0.32403  0.00457  0.63117  Biso   1.000  C
  H774     1.0000 0.31243  0.97957  0.64087  Biso   1.000  H
  N72      1.0000 0.48603  0.97417  0.13647  Biso   1.000  N
