data_image0
_cell_length_a       25.425
_cell_length_b       31.58
_cell_length_c       47.448
_cell_angle_alpha    90
_cell_angle_beta     102.06
_cell_angle_gamma    90

_symmetry_space_group_name_H-M    "P 1"
_symmetry_int_tables_number       1

loop_
  _symmetry_equiv_pos_as_xyz
  'x, y, z'

loop_
  _atom_site_label
  _atom_site_occupancy
  _atom_site_fract_x
  _atom_site_fract_y
  _atom_site_fract_z
  _atom_site_thermal_displace_type
  _atom_site_B_iso_or_equiv
  _atom_site_type_symbol
  N1       1.0000 0.19970  0.25964  0.75425  Biso   1.000  N
  C1       1.0000 0.00970  0.34830  0.03550  Biso   1.000  C
  H1       1.0000 0.03360  0.36820  0.04530  Biso   1.000  H
  C2       1.0000 0.01380  0.33720  0.00910  Biso   1.000  C
  H2       1.0000 0.03740  0.35200  0.00020  Biso   1.000  H
  C3       1.0000 0.94180  0.30430  0.03260  Biso   1.000  C
  H3       1.0000 0.91320  0.29360  0.03980  Biso   1.000  H
  C4       1.0000 0.94820  0.28930  0.00580  Biso   1.000  C
  H4       1.0000 0.92630  0.26800  0.99610  Biso   1.000  H
  C5       1.0000 0.69950  0.01630  0.26809  Biso   1.000  C
  H5       1.0000 0.66590  0.00390  0.26680  Biso   1.000  H
  C6       1.0000 0.73720  0.01420  0.29409  Biso   1.000  C
  H6       1.0000 0.72850  0.00040  0.30980  Biso   1.000  H
  C7       1.0000 0.78910  0.03300  0.29665  Biso   1.000  C
  H7       1.0000 0.81450  0.03300  0.31390  Biso   1.000  H
  C8       1.0000 0.79910  0.05183  0.27114  Biso   1.000  C
  C9       1.0000 0.76090  0.05295  0.24695  Biso   1.000  C
  H8       1.0000 0.76860  0.06590  0.23070  Biso   1.000  H
  C10      1.0000 0.85110  0.07240  0.27153  Biso   1.000  C
  C11      1.0000 0.91330  0.10630  0.25914  Biso   1.000  C
  C12      1.0000 0.94340  0.13160  0.24334  Biso   1.000  C
  C13      1.0000 0.99410  0.14780  0.25620  Biso   1.000  C
  H9       1.0000 0.01030  0.14180  0.27520  Biso   1.000  H
  C14      1.0000 0.01870  0.17330  0.23910  Biso   1.000  C
  H10      1.0000 0.05240  0.18460  0.24670  Biso   1.000  H
  C15      1.0000 0.99390  0.18210  0.21090  Biso   1.000  C
  H11      1.0000 0.01200  0.19830  0.19960  Biso   1.000  H
  C16      1.0000 0.92080  0.14197  0.21603  Biso   1.000  C
  H12      1.0000 0.88710  0.13100  0.20800  Biso   1.000  H
  C17      1.0000 0.67180  0.95710  0.18700  Biso   1.000  C
  H13      1.0000 0.64230  0.95120  0.19510  Biso   1.000  H
  C18      1.0000 0.69390  0.92450  0.17348  Biso   1.000  C
  H14      1.0000 0.67860  0.89760  0.17220  Biso   1.000  H
  C19      1.0000 0.73800  0.93220  0.16207  Biso   1.000  C
  H15      1.0000 0.75350  0.91080  0.15310  Biso   1.000  H
  C20      1.0000 0.75910  0.97284  0.16425  Biso   1.000  C
  C21      1.0000 0.73470  0.00430  0.17837  Biso   1.000  C
  H16      1.0000 0.74930  0.03140  0.18050  Biso   1.000  H
  C22      1.0000 0.80690  0.98530  0.15348  Biso   1.000  C
  C23      1.0000 0.87110  0.01760  0.14296  Biso   1.000  C
  C24      1.0000 0.90760  0.05040  0.13916  Biso   1.000  C
  C25      1.0000 0.95310  0.04540  0.12710  Biso   1.000  C
  H17      1.0000 0.96090  0.01920  0.12000  Biso   1.000  H
  C26      1.0000 0.98630  0.07950  0.12590  Biso   1.000  C
  H18      1.0000 0.01780  0.07570  0.11920  Biso   1.000  H
  C27      1.0000 0.97370  0.11770  0.13423  Biso   1.000  C
  H19      1.0000 0.99540  0.14070  0.13210  Biso   1.000  H
  C28      1.0000 0.89770  0.09000  0.14848  Biso   1.000  C
  H20      1.0000 0.86830  0.09420  0.15690  Biso   1.000  H
  C29      1.0000 0.30710  0.17590  0.75721  Biso   1.000  C
  H21      1.0000 0.33190  0.19730  0.75620  Biso   1.000  H
  C30      1.0000 0.31560  0.13860  0.74642  Biso   1.000  C
  H22      1.0000 0.34360  0.13470  0.73680  Biso   1.000  H
  C31      1.0000 0.27930  0.10300  0.75002  Biso   1.000  C
  H23      1.0000 0.28480  0.07560  0.74410  Biso   1.000  H
  C32      1.0000 0.23610  0.11350  0.76289  Biso   1.000  C
  C33      1.0000 0.23050  0.15510  0.77197  Biso   1.000  C
  H24      1.0000 0.20120  0.16180  0.78000  Biso   1.000  H
  C34      1.0000 0.19800  0.08170  0.76708  Biso   1.000  C
  C35      1.0000 0.13370  0.05070  0.78003  Biso   1.000  C
  C36      1.0000 0.08590  0.04160  0.79091  Biso   1.000  C
  C37      1.0000 0.05860  0.00270  0.78700  Biso   1.000  C
  H25      1.0000 0.07060  0.98110  0.77660  Biso   1.000  H
  C38      1.0000 0.01360  0.99660  0.79888  Biso   1.000  C
  H26      1.0000 0.99470  0.97120  0.79670  Biso   1.000  H
  C39      1.0000 0.99770  0.03110  0.81445  Biso   1.000  C
  H27      1.0000 0.96760  0.02750  0.82250  Biso   1.000  H
  C40      1.0000 0.06580  0.07360  0.80657  Biso   1.000  C
  H28      1.0000 0.08280  0.09980  0.80890  Biso   1.000  H
  C41      1.0000 0.20870  0.28420  0.73192  Biso   1.000  C
  H29      1.0000 0.24330  0.29400  0.73220  Biso   1.000  H
  C42      1.0000 0.16830  0.29450  0.70926  Biso   1.000  C
  H30      1.0000 0.17530  0.31160  0.69450  Biso   1.000  H
  C43      1.0000 0.11460  0.27850  0.70828  Biso   1.000  C
  H31      1.0000 0.08660  0.28420  0.69270  Biso   1.000  H
  C44      1.0000 0.10620  0.25483  0.73108  Biso   1.000  C
  C45      1.0000 0.14870  0.24550  0.75339  Biso   1.000  C
  H32      1.0000 0.14240  0.22890  0.76850  Biso   1.000  H
  C46      1.0000 0.05370  0.23970  0.73233  Biso   1.000  C
  C47      1.0000 0.99000  0.20940  0.74671  Biso   1.000  C
  C48      1.0000 0.95890  0.18399  0.76199  Biso   1.000  C
  C49      1.0000 0.90530  0.17490  0.75335  Biso   1.000  C
  H33      1.0000 0.88690  0.18550  0.73580  Biso   1.000  H
  C50      1.0000 0.87800  0.15130  0.76897  Biso   1.000  C
  H34      1.0000 0.84130  0.14670  0.76290  Biso   1.000  H
  C51      1.0000 0.90720  0.13370  0.79506  Biso   1.000  C
  H35      1.0000 0.88980  0.11620  0.80590  Biso   1.000  H
  C52      1.0000 0.98620  0.16643  0.78862  Biso   1.000  C
  H36      1.0000 0.02270  0.17180  0.79530  Biso   1.000  H
  C53      1.0000 0.95270  0.52980  0.20911  Biso   1.000  C
  H37      1.0000 0.93890  0.50790  0.21850  Biso   1.000  H
  C54      1.0000 0.91840  0.56013  0.19529  Biso   1.000  C
  H38      1.0000 0.88210  0.55910  0.19580  Biso   1.000  H
  C55      1.0000 0.93800  0.59290  0.18024  Biso   1.000  C
  H39      1.0000 0.91520  0.61320  0.17010  Biso   1.000  H
  C56      1.0000 0.99430  0.59337  0.18131  Biso   1.000  C
  C57      1.0000 0.02600  0.56103  0.19602  Biso   1.000  C
  H40      1.0000 0.06260  0.56100  0.19620  Biso   1.000  H
  C58      1.0000 0.01900  0.62400  0.16565  Biso   1.000  C
  C59      1.0000 0.07560  0.65760  0.14838  Biso   1.000  C
  C60      1.0000 0.12740  0.67250  0.14131  Biso   1.000  C
  C61      1.0000 0.12840  0.70570  0.12400  Biso   1.000  C
  H41      1.0000 0.09670  0.71880  0.11470  Biso   1.000  H
  C62      1.0000 0.17910  0.72060  0.12010  Biso   1.000  C
  H42      1.0000 0.18250  0.74660  0.11140  Biso   1.000  H
  C63      1.0000 0.22340  0.69500  0.12986  Biso   1.000  C
  H43      1.0000 0.25600  0.70150  0.12490  Biso   1.000  H
  C64      1.0000 0.17030  0.65000  0.15098  Biso   1.000  C
  H44      1.0000 0.16690  0.62560  0.16140  Biso   1.000  H
  C65      1.0000 0.06240  0.51610  0.28747  Biso   1.000  C
  H45      1.0000 0.03720  0.49500  0.28850  Biso   1.000  H
  C66      1.0000 0.07980  0.54210  0.31100  Biso   1.000  C
  H46      1.0000 0.06700  0.53830  0.32780  Biso   1.000  H
  C67      1.0000 0.11680  0.57380  0.30925  Biso   1.000  C
  H47      1.0000 0.12780  0.59240  0.32460  Biso   1.000  H
  C68      1.0000 0.13660  0.57747  0.28485  Biso   1.000  C
  C69      1.0000 0.11740  0.55064  0.26255  Biso   1.000  C
  H48      1.0000 0.13070  0.55350  0.24580  Biso   1.000  H
  C70      1.0000 0.17600  0.60950  0.28122  Biso   1.000  C
  C71      1.0000 0.23200  0.64590  0.26487  Biso   1.000  C
  C72      1.0000 0.26630  0.66170  0.24721  Biso   1.000  C
  C73      1.0000 0.30180  0.69610  0.25440  Biso   1.000  C
  H49      1.0000 0.30520  0.71020  0.27190  Biso   1.000  H
  C74      1.0000 0.33190  0.70830  0.23410  Biso   1.000  C
  H50      1.0000 0.35590  0.73070  0.23860  Biso   1.000  H
  C75      1.0000 0.32730  0.68870  0.20820  Biso   1.000  C
  H51      1.0000 0.34790  0.69760  0.19530  Biso   1.000  H
  C76      1.0000 0.26380  0.64230  0.22030  Biso   1.000  C
  H52      1.0000 0.24140  0.61900  0.21530  Biso   1.000  H
  C77      1.0000 0.55960  0.02440  0.16222  Biso   1.000  C
  H53      1.0000 0.55830  0.99950  0.17250  Biso   1.000  H
  C78      1.0000 0.51870  0.03200  0.13877  Biso   1.000  C
  H54      1.0000 0.49160  0.01210  0.13320  Biso   1.000  H
  C79      1.0000 0.51820  0.06870  0.12381  Biso   1.000  C
  C80      1.0000 0.56390  0.09560  0.13330  Biso   1.000  C
  H55      1.0000 0.56640  0.12110  0.12380  Biso   1.000  H
  C81      1.0000 0.60290  0.08430  0.15561  Biso   1.000  C
  H56      1.0000 0.63310  0.10160  0.16040  Biso   1.000  H
  C82      1.0000 0.43200  0.06160  0.09040  Biso   1.000  C
  C83      1.0000 0.34410  0.08070  0.05672  Biso   1.000  C
  C84      1.0000 0.32050  0.04090  0.05604  Biso   1.000  C
  H57      1.0000 0.33720  0.01960  0.06820  Biso   1.000  H
  C85      1.0000 0.27190  0.03290  0.03712  Biso   1.000  C
  H58      1.0000 0.25600  0.00630  0.03670  Biso   1.000  H
  C86      1.0000 0.24690  0.06480  0.01889  Biso   1.000  C
  C87      1.0000 0.27050  0.10450  0.01960  Biso   1.000  C
  H59      1.0000 0.25380  0.12580  0.00740  Biso   1.000  H
  C88      1.0000 0.31910  0.11250  0.03850  Biso   1.000  C
  H60      1.0000 0.33500  0.13910  0.03890  Biso   1.000  H
  C89      1.0000 0.17880  0.07570  0.97250  Biso   1.000  C
  C90      1.0000 0.02440  0.06790  0.89587  Biso   1.000  C
  H61      1.0000 0.98920  0.05830  0.89000  Biso   1.000  H
  C91      1.0000 0.05420  0.05590  0.92183  Biso   1.000  C
  H62      1.0000 0.03870  0.03810  0.93350  Biso   1.000  H
  C92      1.0000 0.10590  0.06900  0.93149  Biso   1.000  C
  C93      1.0000 0.12580  0.09750  0.91369  Biso   1.000  C
  H63      1.0000 0.15950  0.10960  0.91980  Biso   1.000  H
  C94      1.0000 0.09570  0.10700  0.88789  Biso   1.000  C
  H64      1.0000 0.11050  0.12410  0.87560  Biso   1.000  H
  C95      1.0000 0.29990  0.19700  0.84152  Biso   1.000  C
  H65      1.0000 0.26380  0.18950  0.83900  Biso   1.000  H
  C96      1.0000 0.33510  0.18240  0.86495  Biso   1.000  C
  H66      1.0000 0.32300  0.16440  0.87770  Biso   1.000  H
  C97      1.0000 0.38880  0.19400  0.87021  Biso   1.000  C
  C98      1.0000 0.40360  0.21890  0.84910  Biso   1.000  C
  H67      1.0000 0.43950  0.22640  0.85100  Biso   1.000  H
  C99      1.0000 0.36830  0.23260  0.82620  Biso   1.000  C
  H68      1.0000 0.38040  0.24980  0.81300  Biso   1.000  H
  C100     1.0000 0.47820  0.19080  0.90340  Biso   1.000  C
  C101     1.0000 0.54940  0.17780  0.94513  Biso   1.000  C
  C102     1.0000 0.55660  0.16630  0.97400  Biso   1.000  C
  H69      1.0000 0.52890  0.15310  0.98070  Biso   1.000  H
  C103     1.0000 0.60520  0.17460  0.99281  Biso   1.000  C
  H70      1.0000 0.61000  0.16690  0.01210  Biso   1.000  H
  C104     1.0000 0.64660  0.19440  0.98281  Biso   1.000  C
  C105     1.0000 0.63940  0.20580  0.95400  Biso   1.000  C
  H71      1.0000 0.66720  0.21910  0.94730  Biso   1.000  H
  C106     1.0000 0.59090  0.19750  0.93514  Biso   1.000  C
  H72      1.0000 0.58610  0.20520  0.91590  Biso   1.000  H
  C107     1.0000 0.71840  0.19610  0.02580  Biso   1.000  C
  C108     1.0000 0.80902  0.17800  0.11310  Biso   1.000  C
  H73      1.0000 0.79380  0.16710  0.12780  Biso   1.000  H
  C109     1.0000 0.77790  0.18250  0.08546  Biso   1.000  C
  H74      1.0000 0.74190  0.17460  0.08160  Biso   1.000  H
  C110     1.0000 0.80070  0.19880  0.06354  Biso   1.000  C
  C111     1.0000 0.85450  0.21050  0.06925  Biso   1.000  C
  H75      1.0000 0.86970  0.22140  0.05460  Biso   1.000  H
  C112     1.0000 0.88563  0.20610  0.09689  Biso   1.000  C
  H76      1.0000 0.92170  0.21390  0.10070  Biso   1.000  H
  N2       1.0000 0.86288  0.18979  0.11881  Biso   1.000  N
  C113     1.0000 0.82900  0.22840  0.18243  Biso   1.000  C
  H77      1.0000 0.81860  0.20160  0.18720  Biso   1.000  H
  C114     1.0000 0.79890  0.26340  0.18711  Biso   1.000  C
  H78      1.0000 0.77090  0.25990  0.19680  Biso   1.000  H
  C115     1.0000 0.80930  0.30100  0.17820  Biso   1.000  C
  C116     1.0000 0.85440  0.30600  0.16600  Biso   1.000  C
  H79      1.0000 0.86440  0.33280  0.16100  Biso   1.000  H
  C117     1.0000 0.88320  0.27200  0.16150  Biso   1.000  C
  H80      1.0000 0.91090  0.27520  0.15170  Biso   1.000  H
  C118     1.0000 0.72950  0.33990  0.18703  Biso   1.000  C
  C119     1.0000 0.66250  0.39500  0.19057  Biso   1.000  C
  C120     1.0000 0.63080  0.37180  0.20624  Biso   1.000  C
  H81      1.0000 0.64000  0.34380  0.21110  Biso   1.000  H
  C121     1.0000 0.58570  0.38950  0.21472  Biso   1.000  C
  H82      1.0000 0.56470  0.37410  0.22490  Biso   1.000  H
  C122     1.0000 0.57420  0.43310  0.20653  Biso   1.000  C
  C123     1.0000 0.60590  0.45450  0.19214  Biso   1.000  C
  H83      1.0000 0.59870  0.48280  0.18760  Biso   1.000  H
  C124     1.0000 0.64900  0.43520  0.18403  Biso   1.000  C
  H84      1.0000 0.66940  0.45070  0.17360  Biso   1.000  H
  C125     1.0000 0.50780  0.48470  0.21340  Biso   1.000  C
  C126     1.0000 0.33074  0.55009  0.19666  Biso   1.000  C
  H85      1.0000 0.29580  0.54620  0.19930  Biso   1.000  H
  C127     1.0000 0.37080  0.52133  0.20829  Biso   1.000  C
  H86      1.0000 0.36270  0.49820  0.21870  Biso   1.000  H
  C128     1.0000 0.42295  0.52719  0.20431  Biso   1.000  C
  C129     1.0000 0.43503  0.56180  0.18871  Biso   1.000  C
  H87      1.0000 0.46990  0.56570  0.18610  Biso   1.000  H
  C130     1.0000 0.39500  0.59055  0.17708  Biso   1.000  C
  H88      1.0000 0.40310  0.61370  0.16660  Biso   1.000  H
  N3       1.0000 0.34282  0.58470  0.18105  Biso   1.000  N
  C131     1.0000 0.09320  0.41240  0.26767  Biso   1.000  C
  H89      1.0000 0.06350  0.41990  0.27510  Biso   1.000  H
  C132     1.0000 0.12210  0.37890  0.27914  Biso   1.000  C
  H90      1.0000 0.11220  0.36380  0.29400  Biso   1.000  H
  C133     1.0000 0.16850  0.36640  0.26840  Biso   1.000  C
  C134     1.0000 0.17950  0.39010  0.24607  Biso   1.000  C
  H91      1.0000 0.20800  0.38290  0.23750  Biso   1.000  H
  C135     1.0000 0.14730  0.42520  0.23631  Biso   1.000  C
  H92      1.0000 0.15680  0.44200  0.22210  Biso   1.000  H
  C136     1.0000 0.23990  0.31314  0.27151  Biso   1.000  C
  C137     1.0000 0.31690  0.26637  0.28837  Biso   1.000  C
  C138     1.0000 0.36170  0.26698  0.31127  Biso   1.000  C
  H93      1.0000 0.36100  0.28220  0.32800  Biso   1.000  H
  C139     1.0000 0.40750  0.24433  0.30863  Biso   1.000  C
  H94      1.0000 0.43660  0.24360  0.32420  Biso   1.000  H
  C140     1.0000 0.41100  0.22307  0.28374  Biso   1.000  C
  C141     1.0000 0.36630  0.22343  0.26029  Biso   1.000  C
  H95      1.0000 0.36800  0.20940  0.24330  Biso   1.000  H
  C142     1.0000 0.31960  0.24489  0.26287  Biso   1.000  C
  H96      1.0000 0.29010  0.24500  0.24750  Biso   1.000  H
  C143     1.0000 0.47215  0.17668  0.26364  Biso   1.000  C
  C144     1.0000 0.63690  0.11419  0.24551  Biso   1.000  C
  H97      1.0000 0.67420  0.11620  0.24930  Biso   1.000  H
  C145     1.0000 0.60941  0.14120  0.25842  Biso   1.000  C
  H98      1.0000 0.62850  0.16090  0.27120  Biso   1.000  H
  C146     1.0000 0.55280  0.14144  0.25367  Biso   1.000  C
  C147     1.0000 0.52880  0.10998  0.23519  Biso   1.000  C
  H99      1.0000 0.49150  0.10750  0.23090  Biso   1.000  H
  C148     1.0000 0.55930  0.08236  0.22313  Biso   1.000  C
  H100     1.0000 0.54190  0.06100  0.21130  Biso   1.000  H
  C149     1.0000 0.22240  0.30360  0.82540  Biso   1.000  C
  H101     1.0000 0.19620  0.28320  0.82580  Biso   1.000  H
  C150     1.0000 0.22460  0.33780  0.84270  Biso   1.000  C
  H102     1.0000 0.19950  0.34040  0.85430  Biso   1.000  H
  C151     1.0000 0.26350  0.36940  0.84370  Biso   1.000  C
  C152     1.0000 0.29840  0.36280  0.82534  Biso   1.000  C
  H103     1.0000 0.32530  0.38270  0.82510  Biso   1.000  H
  C153     1.0000 0.29540  0.32930  0.80810  Biso   1.000  C
  H104     1.0000 0.31970  0.32680  0.79600  Biso   1.000  H
  C154     1.0000 0.24990  0.40730  0.88380  Biso   1.000  C
  C155     1.0000 0.26140  0.45080  0.93006  Biso   1.000  C
  C156     1.0000 0.23850  0.42290  0.94670  Biso   1.000  C
  H105     1.0000 0.22670  0.39640  0.93950  Biso   1.000  H
  C157     1.0000 0.23320  0.43460  0.97420  Biso   1.000  C
  H106     1.0000 0.21790  0.41590  0.98540  Biso   1.000  H
  C158     1.0000 0.25090  0.47420  0.98509  Biso   1.000  C
  C159     1.0000 0.27380  0.50210  0.96840  Biso   1.000  C
  H107     1.0000 0.28560  0.52850  0.97570  Biso   1.000  H
  C160     1.0000 0.27910  0.49040  0.94090  Biso   1.000  C
  H108     1.0000 0.29440  0.50900  0.92980  Biso   1.000  H
  C161     1.0000 0.26240  0.51320  0.03140  Biso   1.000  C
  C162     1.0000 0.24040  0.55310  0.12526  Biso   1.000  C
  H109     1.0000 0.22580  0.54540  0.14090  Biso   1.000  H
  C163     1.0000 0.23280  0.52753  0.10092  Biso   1.000  C
  H110     1.0000 0.21310  0.50260  0.10030  Biso   1.000  H
  C164     1.0000 0.25480  0.53910  0.07756  Biso   1.000  C
  C165     1.0000 0.28430  0.57630  0.07854  Biso   1.000  C
  H111     1.0000 0.29900  0.58410  0.06290  Biso   1.000  H
  C166     1.0000 0.29190  0.60195  0.10289  Biso   1.000  C
  H112     1.0000 0.31170  0.62680  0.10350  Biso   1.000  H
  N4       1.0000 0.27000  0.59035  0.12625  Biso   1.000  N
  C167     1.0000 0.98228  0.42506  0.18936  Biso   1.000  C
  H113     1.0000 0.96210  0.42560  0.20360  Biso   1.000  H
  C168     1.0000 0.96469  0.40143  0.16446  Biso   1.000  C
  H114     1.0000 0.93270  0.38620  0.16200  Biso   1.000  H
  C169     1.0000 0.99484  0.40054  0.14317  Biso   1.000  C
  C170     1.0000 0.04258  0.42329  0.14678  Biso   1.000  C
  H115     1.0000 0.06280  0.42270  0.13250  Biso   1.000  H
  C171     1.0000 0.06018  0.44692  0.17169  Biso   1.000  C
  H116     1.0000 0.09210  0.46210  0.17410  Biso   1.000  H
  N5       1.0000 0.03003  0.44780  0.19297  Biso   1.000  N
  C172     1.0000 0.98870  0.37310  0.09460  Biso   1.000  C
  C173     1.0000 0.97280  0.33200  0.04827  Biso   1.000  C
  C174     1.0000 0.98600  0.30630  0.99497  Biso   1.000  C
  C175     1.0000 0.97200  0.26350  0.94947  Biso   1.000  C
  C176     1.0000 0.95180  0.16490  0.88278  Biso   1.000  C
  H117     1.0000 0.92750  0.14260  0.88160  Biso   1.000  H
  C177     1.0000 0.95230  0.19670  0.90297  Biso   1.000  C
  H118     1.0000 0.92770  0.19600  0.91500  Biso   1.000  H
  C178     1.0000 0.98920  0.22970  0.90542  Biso   1.000  C
  C179     1.0000 0.02280  0.23100  0.88615  Biso   1.000  C
  H119     1.0000 0.04670  0.25330  0.88650  Biso   1.000  H
  C180     1.0000 0.02060  0.19949  0.86683  Biso   1.000  C
  H120     1.0000 0.04400  0.20060  0.85410  Biso   1.000  H
  N6       1.0000 0.71057  0.03559  0.24528  Biso   1.000  N
  N7       1.0000 0.61331  0.08472  0.22764  Biso   1.000  N
  N8       1.0000 0.60053  0.05015  0.17106  Biso   1.000  N
  N9       1.0000 0.69078  0.99564  0.18874  Biso   1.000  N
  N10      1.0000 0.93020  0.12357  0.14569  Biso   1.000  N
  N11      1.0000 0.94500  0.16782  0.19967  Biso   1.000  N
  N12      1.0000 0.87280  0.23265  0.17114  Biso   1.000  N
  N13      1.0000 0.26630  0.18552  0.76942  Biso   1.000  N
  N14      1.0000 0.31560  0.22245  0.82129  Biso   1.000  N
  N15      1.0000 0.25670  0.29775  0.80758  Biso   1.000  N
  N16      1.0000 0.95920  0.14193  0.80418  Biso   1.000  N
  N17      1.0000 0.02240  0.06690  0.81815  Biso   1.000  N
  N18      1.0000 0.04540  0.09302  0.87893  Biso   1.000  N
  N19      1.0000 0.98628  0.16631  0.86487  Biso   1.000  N
  N20      1.0000 0.00619  0.53067  0.20956  Biso   1.000  N
  N21      1.0000 0.10432  0.43573  0.24623  Biso   1.000  N
  N22      1.0000 0.08098  0.52067  0.26320  Biso   1.000  N
  N23      1.0000 0.22000  0.66064  0.14657  Biso   1.000  N
  N24      1.0000 0.29270  0.65639  0.20152  Biso   1.000  N
  N25      1.0000 0.48170  0.08270  0.10140  Biso   1.000  N
  H121     1.0000 0.48840  0.10570  0.09320  Biso   1.000  H
  N26      1.0000 0.39970  0.08970  0.07090  Biso   1.000  N
  H122     1.0000 0.41350  0.11340  0.06710  Biso   1.000  H
  N27      1.0000 0.19800  0.05310  0.99900  Biso   1.000  N
  H123     1.0000 0.17970  0.03190  0.00310  Biso   1.000  H
  N28      1.0000 0.13120  0.05860  0.95930  Biso   1.000  N
  H124     1.0000 0.11610  0.04050  0.96860  Biso   1.000  H
  N29      1.0000 0.42160  0.17970  0.89400  Biso   1.000  N
  H125     1.0000 0.40820  0.16250  0.90470  Biso   1.000  H
  N30      1.0000 0.49530  0.17320  0.92850  Biso   1.000  N
  H126     1.0000 0.47310  0.15800  0.93550  Biso   1.000  H
  N31      1.0000 0.70430  0.20770  0.99670  Biso   1.000  N
  H127     1.0000 0.72540  0.22080  0.98760  Biso   1.000  H
  N32      1.0000 0.77210  0.20860  0.03610  Biso   1.000  N
  H128     1.0000 0.78780  0.22300  0.02490  Biso   1.000  H
  N33      1.0000 0.77780  0.33690  0.17856  Biso   1.000  N
  H129     1.0000 0.79010  0.36000  0.17280  Biso   1.000  H
  N34      1.0000 0.70920  0.37869  0.18400  Biso   1.000  N
  H130     1.0000 0.72810  0.39670  0.17680  Biso   1.000  H
  N35      1.0000 0.52740  0.44800  0.21483  Biso   1.000  N
  H131     1.0000 0.50960  0.42920  0.22200  Biso   1.000  H
  N36      1.0000 0.45900  0.49420  0.21453  Biso   1.000  N
  H132     1.0000 0.44490  0.47560  0.22390  Biso   1.000  H
  N37      1.0000 0.19830  0.33267  0.28135  Biso   1.000  N
  H133     1.0000 0.19050  0.32290  0.29690  Biso   1.000  H
  N38      1.0000 0.27014  0.28894  0.29206  Biso   1.000  N
  H134     1.0000 0.26070  0.28690  0.30840  Biso   1.000  H
  N39      1.0000 0.46043  0.20442  0.28204  Biso   1.000  N
  H135     1.0000 0.48730  0.21240  0.29510  Biso   1.000  H
  N40      1.0000 0.52697  0.16909  0.26743  Biso   1.000  N
  H136     1.0000 0.54720  0.18420  0.28040  Biso   1.000  H
  N41      1.0000 0.27150  0.40150  0.86157  Biso   1.000  N
  H137     1.0000 0.29330  0.42080  0.85820  Biso   1.000  H
  N42      1.0000 0.27110  0.43880  0.90230  Biso   1.000  N
  H138     1.0000 0.29430  0.45440  0.89630  Biso   1.000  H
  N43      1.0000 0.24810  0.47690  0.01500  Biso   1.000  N
  H139     1.0000 0.23710  0.45520  0.02300  Biso   1.000  H
  N44      1.0000 0.24770  0.51050  0.05560  Biso   1.000  N
  H140     1.0000 0.23110  0.48760  0.05830  Biso   1.000  H
  N45      1.0000 0.97220  0.37600  0.11827  Biso   1.000  N
  H141     1.0000 0.94400  0.36140  0.11930  Biso   1.000  H
  N46      1.0000 0.96190  0.34410  0.07592  Biso   1.000  N
  H142     1.0000 0.93550  0.33140  0.08110  Biso   1.000  H
  N47      1.0000 0.99350  0.29570  0.96744  Biso   1.000  N
  H143     1.0000 0.01520  0.31200  0.96080  Biso   1.000  H
  N48      1.0000 0.99350  0.26179  0.92560  Biso   1.000  N
  H144     1.0000 0.01220  0.28340  0.92260  Biso   1.000  H
  N49      1.0000 0.04330  0.21333  0.75280  Biso   1.000  N
  N50      1.0000 0.00890  0.25273  0.71527  Biso   1.000  N
  H145     1.0000 0.00590  0.27050  0.70130  Biso   1.000  H
  N51      1.0000 0.96670  0.23132  0.72475  Biso   1.000  N
  N52      1.0000 0.15790  0.02186  0.76790  Biso   1.000  N
  H146     1.0000 0.14930  0.99560  0.76560  Biso   1.000  H
  N53      1.0000 0.20130  0.04223  0.75926  Biso   1.000  N
  N54      1.0000 0.15650  0.08886  0.78061  Biso   1.000  N
  N55      1.0000 0.83320  0.95620  0.14096  Biso   1.000  N
  N56      1.0000 0.87580  0.97848  0.13413  Biso   1.000  N
  H147     1.0000 0.90030  0.96880  0.12580  Biso   1.000  H
  N57      1.0000 0.82970  0.02354  0.15622  Biso   1.000  N
  N58      1.0000 0.92910  0.10070  0.28738  Biso   1.000  N
  N59      1.0000 0.88708  0.07604  0.29555  Biso   1.000  N
  H148     1.0000 0.88590  0.06610  0.31230  Biso   1.000  H
  N60      1.0000 0.86463  0.09030  0.24913  Biso   1.000  N
  N61      1.0000 0.19875  0.61159  0.25814  Biso   1.000  N
  N62      1.0000 0.19130  0.63920  0.30026  Biso   1.000  N
  N63      1.0000 0.22990  0.66329  0.28908  Biso   1.000  N
  H149     1.0000 0.24790  0.68480  0.29690  Biso   1.000  H
  N64      1.0000 0.99264  0.65453  0.15049  Biso   1.000  N
  H150     1.0000 0.95870  0.65940  0.14810  Biso   1.000  H
  N65      1.0000 0.03040  0.67827  0.13858  Biso   1.000  N
  N66      1.0000 0.07240  0.62511  0.16580  Biso   1.000  N
  O1       1.0000 0.41530  0.03100  0.09981  Biso   1.000  O
  O2       1.0000 0.20340  0.10610  0.96476  Biso   1.000  O
  O3       1.0000 0.50070  0.21050  0.88989  Biso   1.000  O
  O4       1.0000 0.69190  0.17860  0.04010  Biso   1.000  O
  O5       1.0000 0.70984  0.31005  0.19787  Biso   1.000  O
  O6       1.0000 0.53550  0.51430  0.21460  Biso   1.000  O
  O7       1.0000 0.24841  0.31864  0.24715  Biso   1.000  O
  O8       1.0000 0.43840  0.15825  0.24504  Biso   1.000  O
  O9       1.0000 0.21460  0.38630  0.88950  Biso   1.000  O
  O10      1.0000 0.28590  0.54490  0.02340  Biso   1.000  O
  O11      1.0000 0.03550  0.38840  0.09193  Biso   1.000  O
  O12      1.0000 0.93660  0.24150  0.95331  Biso   1.000  O
  Pd1      1.0000 0.65435  0.04136  0.20814  Biso   1.000  Pd
  Pd2      1.0000 0.90573  0.17999  0.15879  Biso   1.000  Pd
  Pd3      1.0000 0.25938  0.24241  0.78743  Biso   1.000  Pd
  Pd4      1.0000 0.00088  0.11592  0.84140  Biso   1.000  Pd
  Pd5      1.0000 0.05494  0.48316  0.22839  Biso   1.000  Pd
  Pd6      1.0000 0.28402  0.62406  0.16360  Biso   1.000  Pd
  N67      1.0000 0.30030  0.75964  0.74575  Biso   1.000  N
  C181     1.0000 0.49030  0.84830  0.46450  Biso   1.000  C
  H151     1.0000 0.46640  0.86820  0.45470  Biso   1.000  H
  C182     1.0000 0.48620  0.83720  0.49090  Biso   1.000  C
  H152     1.0000 0.46260  0.85200  0.49980  Biso   1.000  H
  C183     1.0000 0.55820  0.80430  0.46740  Biso   1.000  C
  H153     1.0000 0.58680  0.79360  0.46020  Biso   1.000  H
  C184     1.0000 0.55180  0.78930  0.49420  Biso   1.000  C
  H154     1.0000 0.57370  0.76800  0.50390  Biso   1.000  H
  C185     1.0000 0.80050  0.51630  0.23191  Biso   1.000  C
  H155     1.0000 0.83410  0.50390  0.23320  Biso   1.000  H
  C186     1.0000 0.76280  0.51420  0.20591  Biso   1.000  C
  H156     1.0000 0.77150  0.50040  0.19020  Biso   1.000  H
  C187     1.0000 0.71090  0.53300  0.20335  Biso   1.000  C
  H157     1.0000 0.68550  0.53300  0.18610  Biso   1.000  H
  C188     1.0000 0.70090  0.55183  0.22886  Biso   1.000  C
  C189     1.0000 0.73910  0.55295  0.25305  Biso   1.000  C
  H158     1.0000 0.73140  0.56590  0.26930  Biso   1.000  H
  C190     1.0000 0.64890  0.57240  0.22847  Biso   1.000  C
  C191     1.0000 0.58670  0.60630  0.24086  Biso   1.000  C
  C192     1.0000 0.55660  0.63160  0.25666  Biso   1.000  C
  C193     1.0000 0.50590  0.64780  0.24380  Biso   1.000  C
  H159     1.0000 0.48970  0.64180  0.22480  Biso   1.000  H
  C194     1.0000 0.48130  0.67330  0.26090  Biso   1.000  C
  H160     1.0000 0.44760  0.68460  0.25330  Biso   1.000  H
  C195     1.0000 0.50610  0.68210  0.28910  Biso   1.000  C
  H161     1.0000 0.48800  0.69830  0.30040  Biso   1.000  H
  C196     1.0000 0.57920  0.64197  0.28397  Biso   1.000  C
  H162     1.0000 0.61290  0.63100  0.29200  Biso   1.000  H
  C197     1.0000 0.82820  0.45710  0.31300  Biso   1.000  C
  H163     1.0000 0.85770  0.45120  0.30490  Biso   1.000  H
  C198     1.0000 0.80610  0.42450  0.32652  Biso   1.000  C
  H164     1.0000 0.82140  0.39760  0.32780  Biso   1.000  H
  C199     1.0000 0.76200  0.43220  0.33793  Biso   1.000  C
  H165     1.0000 0.74650  0.41080  0.34690  Biso   1.000  H
  C200     1.0000 0.74090  0.47284  0.33575  Biso   1.000  C
  C201     1.0000 0.76530  0.50430  0.32163  Biso   1.000  C
  H166     1.0000 0.75070  0.53140  0.31950  Biso   1.000  H
  C202     1.0000 0.69310  0.48530  0.34652  Biso   1.000  C
  C203     1.0000 0.62890  0.51760  0.35704  Biso   1.000  C
  C204     1.0000 0.59240  0.55040  0.36084  Biso   1.000  C
  C205     1.0000 0.54690  0.54540  0.37290  Biso   1.000  C
  H167     1.0000 0.53910  0.51920  0.38000  Biso   1.000  H
  C206     1.0000 0.51370  0.57950  0.37410  Biso   1.000  C
  H168     1.0000 0.48220  0.57570  0.38080  Biso   1.000  H
  C207     1.0000 0.52630  0.61770  0.36577  Biso   1.000  C
  H169     1.0000 0.50460  0.64070  0.36790  Biso   1.000  H
  C208     1.0000 0.60230  0.59000  0.35152  Biso   1.000  C
  H170     1.0000 0.63170  0.59420  0.34310  Biso   1.000  H
  C209     1.0000 0.19290  0.67590  0.74279  Biso   1.000  C
  H171     1.0000 0.16810  0.69730  0.74380  Biso   1.000  H
  C210     1.0000 0.18440  0.63860  0.75358  Biso   1.000  C
  H172     1.0000 0.15640  0.63470  0.76320  Biso   1.000  H
  C211     1.0000 0.22070  0.60300  0.74998  Biso   1.000  C
  H173     1.0000 0.21520  0.57560  0.75590  Biso   1.000  H
  C212     1.0000 0.26390  0.61350  0.73711  Biso   1.000  C
  C213     1.0000 0.26950  0.65510  0.72803  Biso   1.000  C
  H174     1.0000 0.29880  0.66180  0.72000  Biso   1.000  H
  C214     1.0000 0.30200  0.58170  0.73292  Biso   1.000  C
  C215     1.0000 0.36630  0.55070  0.71997  Biso   1.000  C
  C216     1.0000 0.41410  0.54160  0.70909  Biso   1.000  C
  C217     1.0000 0.44140  0.50270  0.71300  Biso   1.000  C
  H175     1.0000 0.42940  0.48110  0.72340  Biso   1.000  H
  C218     1.0000 0.48640  0.49660  0.70112  Biso   1.000  C
  H176     1.0000 0.50530  0.47120  0.70330  Biso   1.000  H
  C219     1.0000 0.50230  0.53110  0.68555  Biso   1.000  C
  H177     1.0000 0.53240  0.52750  0.67750  Biso   1.000  H
  C220     1.0000 0.43420  0.57360  0.69343  Biso   1.000  C
  H178     1.0000 0.41720  0.59980  0.69110  Biso   1.000  H
  C221     1.0000 0.29130  0.78420  0.76808  Biso   1.000  C
  H179     1.0000 0.25670  0.79400  0.76780  Biso   1.000  H
  C222     1.0000 0.33170  0.79450  0.79074  Biso   1.000  C
  H180     1.0000 0.32470  0.81160  0.80550  Biso   1.000  H
  C223     1.0000 0.38540  0.77850  0.79172  Biso   1.000  C
  H181     1.0000 0.41340  0.78420  0.80730  Biso   1.000  H
  C224     1.0000 0.39380  0.75483  0.76892  Biso   1.000  C
  C225     1.0000 0.35130  0.74550  0.74661  Biso   1.000  C
  H182     1.0000 0.35760  0.72890  0.73150  Biso   1.000  H
  C226     1.0000 0.44630  0.73970  0.76767  Biso   1.000  C
  C227     1.0000 0.51000  0.70940  0.75329  Biso   1.000  C
  C228     1.0000 0.54110  0.68399  0.73801  Biso   1.000  C
  C229     1.0000 0.59470  0.67490  0.74665  Biso   1.000  C
  H183     1.0000 0.61310  0.68550  0.76420  Biso   1.000  H
  C230     1.0000 0.62200  0.65130  0.73103  Biso   1.000  C
  H184     1.0000 0.65870  0.64670  0.73710  Biso   1.000  H
  C231     1.0000 0.59280  0.63370  0.70494  Biso   1.000  C
  H185     1.0000 0.61020  0.61620  0.69410  Biso   1.000  H
  C232     1.0000 0.51380  0.66643  0.71138  Biso   1.000  C
  H186     1.0000 0.47730  0.67180  0.70470  Biso   1.000  H
  C233     1.0000 0.54730  0.02980  0.29089  Biso   1.000  C
  H187     1.0000 0.56110  0.00790  0.28150  Biso   1.000  H
  C234     1.0000 0.58160  0.06013  0.30471  Biso   1.000  C
  H188     1.0000 0.61790  0.05910  0.30420  Biso   1.000  H
  C235     1.0000 0.56200  0.09290  0.31976  Biso   1.000  C
  H189     1.0000 0.58480  0.11320  0.32990  Biso   1.000  H
  C236     1.0000 0.50570  0.09337  0.31869  Biso   1.000  C
  C237     1.0000 0.47400  0.06103  0.30398  Biso   1.000  C
  H190     1.0000 0.43740  0.06100  0.30380  Biso   1.000  H
  C238     1.0000 0.48100  0.12400  0.33435  Biso   1.000  C
  C239     1.0000 0.42440  0.15760  0.35162  Biso   1.000  C
  C240     1.0000 0.37260  0.17250  0.35869  Biso   1.000  C
  C241     1.0000 0.37160  0.20570  0.37600  Biso   1.000  C
  H191     1.0000 0.40330  0.21880  0.38530  Biso   1.000  H
  C242     1.0000 0.32090  0.22060  0.37990  Biso   1.000  C
  H192     1.0000 0.31750  0.24660  0.38860  Biso   1.000  H
  C243     1.0000 0.27660  0.19500  0.37014  Biso   1.000  C
  H193     1.0000 0.24400  0.20150  0.37510  Biso   1.000  H
  C244     1.0000 0.32970  0.15000  0.34902  Biso   1.000  C
  H194     1.0000 0.33310  0.12560  0.33860  Biso   1.000  H
  C245     1.0000 0.43760  0.01610  0.21253  Biso   1.000  C
  H195     1.0000 0.46280  0.99500  0.21150  Biso   1.000  H
  C246     1.0000 0.42020  0.04210  0.18900  Biso   1.000  C
  H196     1.0000 0.43300  0.03830  0.17220  Biso   1.000  H
  C247     1.0000 0.38320  0.07380  0.19075  Biso   1.000  C
  H197     1.0000 0.37220  0.09240  0.17540  Biso   1.000  H
  C248     1.0000 0.36340  0.07747  0.21515  Biso   1.000  C
  C249     1.0000 0.38260  0.05064  0.23745  Biso   1.000  C
  H198     1.0000 0.36930  0.05350  0.25420  Biso   1.000  H
  C250     1.0000 0.32400  0.10950  0.21878  Biso   1.000  C
  C251     1.0000 0.26800  0.14590  0.23513  Biso   1.000  C
  C252     1.0000 0.23370  0.16170  0.25279  Biso   1.000  C
  C253     1.0000 0.19820  0.19610  0.24560  Biso   1.000  C
  H199     1.0000 0.19480  0.21020  0.22810  Biso   1.000  H
  C254     1.0000 0.16810  0.20830  0.26590  Biso   1.000  C
  H200     1.0000 0.14410  0.23070  0.26140  Biso   1.000  H
  C255     1.0000 0.17270  0.18870  0.29180  Biso   1.000  C
  H201     1.0000 0.15210  0.19760  0.30470  Biso   1.000  H
  C256     1.0000 0.23620  0.14230  0.27970  Biso   1.000  C
  H202     1.0000 0.25860  0.11900  0.28470  Biso   1.000  H
  C257     1.0000 0.94040  0.52440  0.33778  Biso   1.000  C
  H203     1.0000 0.94170  0.49950  0.32750  Biso   1.000  H
  C258     1.0000 0.98130  0.53200  0.36123  Biso   1.000  C
  H204     1.0000 0.00840  0.51210  0.36680  Biso   1.000  H
  C259     1.0000 0.98180  0.56870  0.37619  Biso   1.000  C
  C260     1.0000 0.93610  0.59560  0.36670  Biso   1.000  C
  H205     1.0000 0.93360  0.62110  0.37620  Biso   1.000  H
  C261     1.0000 0.89710  0.58430  0.34439  Biso   1.000  C
  H206     1.0000 0.86690  0.60160  0.33960  Biso   1.000  H
  C262     1.0000 0.06800  0.56160  0.40960  Biso   1.000  C
  C263     1.0000 0.15590  0.58070  0.44328  Biso   1.000  C
  C264     1.0000 0.17950  0.54090  0.44396  Biso   1.000  C
  H207     1.0000 0.16280  0.51960  0.43180  Biso   1.000  H
  C265     1.0000 0.22810  0.53290  0.46288  Biso   1.000  C
  H208     1.0000 0.24400  0.50630  0.46330  Biso   1.000  H
  C266     1.0000 0.25310  0.56480  0.48111  Biso   1.000  C
  C267     1.0000 0.22950  0.60450  0.48040  Biso   1.000  C
  H209     1.0000 0.24620  0.62580  0.49260  Biso   1.000  H
  C268     1.0000 0.18090  0.61250  0.46150  Biso   1.000  C
  H210     1.0000 0.16500  0.63910  0.46110  Biso   1.000  H
  C269     1.0000 0.32120  0.57570  0.52750  Biso   1.000  C
  C270     1.0000 0.47560  0.56790  0.60413  Biso   1.000  C
  H211     1.0000 0.51080  0.55830  0.61000  Biso   1.000  H
  C271     1.0000 0.44580  0.55590  0.57817  Biso   1.000  C
  H212     1.0000 0.46130  0.53810  0.56650  Biso   1.000  H
  C272     1.0000 0.39410  0.56900  0.56851  Biso   1.000  C
  C273     1.0000 0.37420  0.59750  0.58631  Biso   1.000  C
  H213     1.0000 0.34050  0.60960  0.58020  Biso   1.000  H
  C274     1.0000 0.40430  0.60700  0.61211  Biso   1.000  C
  H214     1.0000 0.38950  0.62410  0.62440  Biso   1.000  H
  C275     1.0000 0.20010  0.69700  0.65848  Biso   1.000  C
  H215     1.0000 0.23620  0.68950  0.66100  Biso   1.000  H
  C276     1.0000 0.16490  0.68240  0.63505  Biso   1.000  C
  H216     1.0000 0.17700  0.66440  0.62230  Biso   1.000  H
  C277     1.0000 0.11120  0.69400  0.62979  Biso   1.000  C
  C278     1.0000 0.09640  0.71890  0.65090  Biso   1.000  C
  H217     1.0000 0.06050  0.72640  0.64900  Biso   1.000  H
  C279     1.0000 0.13170  0.73260  0.67380  Biso   1.000  C
  H218     1.0000 0.11960  0.74980  0.68700  Biso   1.000  H
  C280     1.0000 0.02180  0.69080  0.59660  Biso   1.000  C
  C281     1.0000 0.95060  0.67780  0.55487  Biso   1.000  C
  C282     1.0000 0.94340  0.66630  0.52600  Biso   1.000  C
  H219     1.0000 0.97110  0.65310  0.51930  Biso   1.000  H
  C283     1.0000 0.89480  0.67460  0.50719  Biso   1.000  C
  H220     1.0000 0.89000  0.66690  0.48790  Biso   1.000  H
  C284     1.0000 0.85340  0.69440  0.51719  Biso   1.000  C
  C285     1.0000 0.86060  0.70580  0.54600  Biso   1.000  C
  H221     1.0000 0.83280  0.71910  0.55270  Biso   1.000  H
  C286     1.0000 0.90910  0.69750  0.56486  Biso   1.000  C
  H222     1.0000 0.91390  0.70520  0.58410  Biso   1.000  H
  C287     1.0000 0.78160  0.69610  0.47420  Biso   1.000  C
  C288     1.0000 0.69098  0.67800  0.38690  Biso   1.000  C
  H223     1.0000 0.70620  0.66710  0.37220  Biso   1.000  H
  C289     1.0000 0.72210  0.68250  0.41454  Biso   1.000  C
  H224     1.0000 0.75810  0.67460  0.41840  Biso   1.000  H
  C290     1.0000 0.69930  0.69880  0.43646  Biso   1.000  C
  C291     1.0000 0.64550  0.71050  0.43075  Biso   1.000  C
  H225     1.0000 0.63030  0.72140  0.44540  Biso   1.000  H
  C292     1.0000 0.61437  0.70610  0.40311  Biso   1.000  C
  H226     1.0000 0.57830  0.71390  0.39930  Biso   1.000  H
  N68      1.0000 0.63712  0.68979  0.38119  Biso   1.000  N
  C293     1.0000 0.67100  0.72840  0.31757  Biso   1.000  C
  H227     1.0000 0.68140  0.70160  0.31280  Biso   1.000  H
  C294     1.0000 0.70110  0.76340  0.31289  Biso   1.000  C
  H228     1.0000 0.72910  0.75990  0.30320  Biso   1.000  H
  C295     1.0000 0.69070  0.80100  0.32180  Biso   1.000  C
  C296     1.0000 0.64560  0.80600  0.33400  Biso   1.000  C
  H229     1.0000 0.63560  0.83280  0.33900  Biso   1.000  H
  C297     1.0000 0.61680  0.77200  0.33850  Biso   1.000  C
  H230     1.0000 0.58910  0.77520  0.34830  Biso   1.000  H
  C298     1.0000 0.77050  0.83990  0.31297  Biso   1.000  C
  C299     1.0000 0.83750  0.89500  0.30943  Biso   1.000  C
  C300     1.0000 0.86920  0.87180  0.29376  Biso   1.000  C
  H231     1.0000 0.86000  0.84380  0.28890  Biso   1.000  H
  C301     1.0000 0.91430  0.88950  0.28528  Biso   1.000  C
  H232     1.0000 0.93530  0.87410  0.27510  Biso   1.000  H
  C302     1.0000 0.92580  0.93310  0.29347  Biso   1.000  C
  C303     1.0000 0.89410  0.95450  0.30786  Biso   1.000  C
  H233     1.0000 0.90130  0.98280  0.31240  Biso   1.000  H
  C304     1.0000 0.85100  0.93520  0.31597  Biso   1.000  C
  H234     1.0000 0.83060  0.95070  0.32640  Biso   1.000  H
  C305     1.0000 0.99220  0.98470  0.28660  Biso   1.000  C
  C306     1.0000 0.16926  0.05009  0.30334  Biso   1.000  C
  H235     1.0000 0.20420  0.04620  0.30070  Biso   1.000  H
  C307     1.0000 0.12920  0.02133  0.29171  Biso   1.000  C
  H236     1.0000 0.13730  0.99820  0.28130  Biso   1.000  H
  C308     1.0000 0.07705  0.02719  0.29569  Biso   1.000  C
  C309     1.0000 0.06497  0.06180  0.31129  Biso   1.000  C
  H237     1.0000 0.03010  0.06570  0.31390  Biso   1.000  H
  C310     1.0000 0.10500  0.09055  0.32292  Biso   1.000  C
  H238     1.0000 0.09690  0.11370  0.33340  Biso   1.000  H
  N69      1.0000 0.15718  0.08470  0.31895  Biso   1.000  N
  C311     1.0000 0.40680  0.91240  0.23233  Biso   1.000  C
  H239     1.0000 0.43650  0.91990  0.22490  Biso   1.000  H
  C312     1.0000 0.37790  0.87890  0.22086  Biso   1.000  C
  H240     1.0000 0.38780  0.86380  0.20600  Biso   1.000  H
  C313     1.0000 0.33150  0.86640  0.23160  Biso   1.000  C
  C314     1.0000 0.32050  0.89010  0.25393  Biso   1.000  C
  H241     1.0000 0.29200  0.88290  0.26250  Biso   1.000  H
  C315     1.0000 0.35270  0.92520  0.26369  Biso   1.000  C
  H242     1.0000 0.34320  0.94200  0.27790  Biso   1.000  H
  C316     1.0000 0.26010  0.81314  0.22849  Biso   1.000  C
  C317     1.0000 0.18310  0.76637  0.21163  Biso   1.000  C
  C318     1.0000 0.13830  0.76698  0.18873  Biso   1.000  C
  H243     1.0000 0.13900  0.78220  0.17200  Biso   1.000  H
  C319     1.0000 0.09250  0.74433  0.19137  Biso   1.000  C
  H244     1.0000 0.06340  0.74360  0.17580  Biso   1.000  H
  C320     1.0000 0.08900  0.72307  0.21626  Biso   1.000  C
  C321     1.0000 0.13370  0.72343  0.23971  Biso   1.000  C
  H245     1.0000 0.13200  0.70940  0.25670  Biso   1.000  H
  C322     1.0000 0.18040  0.74489  0.23713  Biso   1.000  C
  H246     1.0000 0.20990  0.74500  0.25250  Biso   1.000  H
  C323     1.0000 0.02785  0.67668  0.23636  Biso   1.000  C
  C324     1.0000 0.86310  0.61419  0.25449  Biso   1.000  C
  H247     1.0000 0.82580  0.61620  0.25070  Biso   1.000  H
  C325     1.0000 0.89059  0.64120  0.24158  Biso   1.000  C
  H248     1.0000 0.87150  0.66090  0.22880  Biso   1.000  H
  C326     1.0000 0.94720  0.64144  0.24633  Biso   1.000  C
  C327     1.0000 0.97120  0.60998  0.26481  Biso   1.000  C
  H249     1.0000 0.00850  0.60750  0.26910  Biso   1.000  H
  C328     1.0000 0.94070  0.58236  0.27687  Biso   1.000  C
  H250     1.0000 0.95810  0.56100  0.28870  Biso   1.000  H
  C329     1.0000 0.27760  0.80360  0.67460  Biso   1.000  C
  H251     1.0000 0.30380  0.78320  0.67420  Biso   1.000  H
  C330     1.0000 0.27540  0.83780  0.65730  Biso   1.000  C
  H252     1.0000 0.30050  0.84040  0.64570  Biso   1.000  H
  C331     1.0000 0.23650  0.86940  0.65630  Biso   1.000  C
  C332     1.0000 0.20160  0.86280  0.67466  Biso   1.000  C
  H253     1.0000 0.17470  0.88270  0.67490  Biso   1.000  H
  C333     1.0000 0.20460  0.82930  0.69190  Biso   1.000  C
  H254     1.0000 0.18030  0.82680  0.70400  Biso   1.000  H
  C334     1.0000 0.25010  0.90730  0.61620  Biso   1.000  C
  C335     1.0000 0.23860  0.95080  0.56994  Biso   1.000  C
  C336     1.0000 0.26150  0.92290  0.55330  Biso   1.000  C
  H255     1.0000 0.27330  0.89640  0.56050  Biso   1.000  H
  C337     1.0000 0.26680  0.93460  0.52580  Biso   1.000  C
  H256     1.0000 0.28210  0.91590  0.51460  Biso   1.000  H
  C338     1.0000 0.24910  0.97420  0.51491  Biso   1.000  C
  C339     1.0000 0.22620  0.00210  0.53160  Biso   1.000  C
  H257     1.0000 0.21440  0.02850  0.52430  Biso   1.000  H
  C340     1.0000 0.22090  0.99040  0.55910  Biso   1.000  C
  H258     1.0000 0.20560  0.00900  0.57020  Biso   1.000  H
  C341     1.0000 0.23760  0.01320  0.46860  Biso   1.000  C
  C342     1.0000 0.25960  0.05310  0.37474  Biso   1.000  C
  H259     1.0000 0.27420  0.04540  0.35910  Biso   1.000  H
  C343     1.0000 0.26720  0.02753  0.39908  Biso   1.000  C
  H260     1.0000 0.28690  0.00260  0.39970  Biso   1.000  H
  C344     1.0000 0.24520  0.03910  0.42244  Biso   1.000  C
  C345     1.0000 0.21570  0.07630  0.42146  Biso   1.000  C
  H261     1.0000 0.20100  0.08410  0.43710  Biso   1.000  H
  C346     1.0000 0.20810  0.10195  0.39711  Biso   1.000  C
  H262     1.0000 0.18830  0.12680  0.39650  Biso   1.000  H
  N70      1.0000 0.23000  0.09035  0.37375  Biso   1.000  N
  C347     1.0000 0.51772  0.92506  0.31064  Biso   1.000  C
  H263     1.0000 0.53790  0.92560  0.29640  Biso   1.000  H
  C348     1.0000 0.53531  0.90143  0.33554  Biso   1.000  C
  H264     1.0000 0.56730  0.88620  0.33800  Biso   1.000  H
  C349     1.0000 0.50516  0.90054  0.35683  Biso   1.000  C
  C350     1.0000 0.45742  0.92329  0.35322  Biso   1.000  C
  H265     1.0000 0.43720  0.92270  0.36750  Biso   1.000  H
  C351     1.0000 0.43982  0.94692  0.32831  Biso   1.000  C
  H266     1.0000 0.40790  0.96210  0.32590  Biso   1.000  H
  N71      1.0000 0.46997  0.94780  0.30703  Biso   1.000  N
  C352     1.0000 0.51130  0.87310  0.40540  Biso   1.000  C
  C353     1.0000 0.52720  0.83200  0.45173  Biso   1.000  C
  C354     1.0000 0.51400  0.80630  0.50503  Biso   1.000  C
  C355     1.0000 0.52800  0.76350  0.55053  Biso   1.000  C
  C356     1.0000 0.54820  0.66490  0.61722  Biso   1.000  C
  H267     1.0000 0.57250  0.64260  0.61840  Biso   1.000  H
  C357     1.0000 0.54770  0.69670  0.59703  Biso   1.000  C
  H268     1.0000 0.57230  0.69600  0.58500  Biso   1.000  H
  C358     1.0000 0.51080  0.72970  0.59458  Biso   1.000  C
  C359     1.0000 0.47720  0.73100  0.61385  Biso   1.000  C
  H269     1.0000 0.45330  0.75330  0.61350  Biso   1.000  H
  C360     1.0000 0.47940  0.69949  0.63317  Biso   1.000  C
  H270     1.0000 0.45600  0.70060  0.64590  Biso   1.000  H
  N72      1.0000 0.78943  0.53559  0.25472  Biso   1.000  N
  N73      1.0000 0.88669  0.58472  0.27236  Biso   1.000  N
  N74      1.0000 0.89947  0.55015  0.32894  Biso   1.000  N
  N75      1.0000 0.80922  0.49564  0.31126  Biso   1.000  N
  N76      1.0000 0.56980  0.62357  0.35431  Biso   1.000  N
  N77      1.0000 0.55500  0.66782  0.30033  Biso   1.000  N
  N78      1.0000 0.62720  0.73265  0.32886  Biso   1.000  N
  N79      1.0000 0.23370  0.68552  0.73058  Biso   1.000  N
  N80      1.0000 0.18440  0.72245  0.67871  Biso   1.000  N
  N81      1.0000 0.24330  0.79775  0.69242  Biso   1.000  N
  N82      1.0000 0.54080  0.64193  0.69582  Biso   1.000  N
  N83      1.0000 0.47760  0.56690  0.68185  Biso   1.000  N
  N84      1.0000 0.45460  0.59302  0.62107  Biso   1.000  N
  N85      1.0000 0.51372  0.66631  0.63513  Biso   1.000  N
  N86      1.0000 0.49381  0.03067  0.29044  Biso   1.000  N
  N87      1.0000 0.39568  0.93573  0.25377  Biso   1.000  N
  N88      1.0000 0.41902  0.02067  0.23680  Biso   1.000  N
  N89      1.0000 0.28000  0.16064  0.35343  Biso   1.000  N
  N90      1.0000 0.20730  0.15639  0.29848  Biso   1.000  N
  N91      1.0000 0.01830  0.58270  0.39860  Biso   1.000  N
  H271     1.0000 0.01160  0.60570  0.40680  Biso   1.000  H
  N92      1.0000 0.10030  0.58970  0.42910  Biso   1.000  N
  H272     1.0000 0.08650  0.61340  0.43290  Biso   1.000  H
  N93      1.0000 0.30200  0.55310  0.50100  Biso   1.000  N
  H273     1.0000 0.32030  0.53190  0.49690  Biso   1.000  H
  N94      1.0000 0.36880  0.55860  0.54070  Biso   1.000  N
  H274     1.0000 0.38390  0.54050  0.53140  Biso   1.000  H
  N95      1.0000 0.07840  0.67970  0.60600  Biso   1.000  N
  H275     1.0000 0.09180  0.66250  0.59530  Biso   1.000  H
  N96      1.0000 0.00470  0.67320  0.57150  Biso   1.000  N
  H276     1.0000 0.02690  0.65800  0.56450  Biso   1.000  H
  N97      1.0000 0.79570  0.70770  0.50330  Biso   1.000  N
  H277     1.0000 0.77460  0.72080  0.51240  Biso   1.000  H
  N98      1.0000 0.72790  0.70860  0.46390  Biso   1.000  N
  H278     1.0000 0.71220  0.72300  0.47510  Biso   1.000  H
  N99      1.0000 0.72220  0.83690  0.32144  Biso   1.000  N
  H279     1.0000 0.70990  0.86000  0.32720  Biso   1.000  H
  N100     1.0000 0.79080  0.87869  0.31600  Biso   1.000  N
  H280     1.0000 0.77190  0.89670  0.32320  Biso   1.000  H
  N101     1.0000 0.97260  0.94800  0.28517  Biso   1.000  N
  H281     1.0000 0.99040  0.92920  0.27800  Biso   1.000  H
  N102     1.0000 0.04100  0.99420  0.28547  Biso   1.000  N
  H282     1.0000 0.05510  0.97560  0.27610  Biso   1.000  H
  N103     1.0000 0.30170  0.83267  0.21865  Biso   1.000  N
  H283     1.0000 0.30950  0.82290  0.20310  Biso   1.000  H
  N104     1.0000 0.22986  0.78894  0.20794  Biso   1.000  N
  H284     1.0000 0.23930  0.78690  0.19160  Biso   1.000  H
  N105     1.0000 0.03957  0.70442  0.21796  Biso   1.000  N
  H285     1.0000 0.01270  0.71240  0.20490  Biso   1.000  H
  N106     1.0000 0.97303  0.66909  0.23257  Biso   1.000  N
  H286     1.0000 0.95280  0.68420  0.21960  Biso   1.000  H
  N107     1.0000 0.22850  0.90150  0.63843  Biso   1.000  N
  H287     1.0000 0.20670  0.92080  0.64180  Biso   1.000  H
  N108     1.0000 0.22890  0.93880  0.59770  Biso   1.000  N
  H288     1.0000 0.20570  0.95440  0.60370  Biso   1.000  H
  N109     1.0000 0.25190  0.97690  0.48500  Biso   1.000  N
  H289     1.0000 0.26290  0.95520  0.47700  Biso   1.000  H
  N110     1.0000 0.25230  0.01050  0.44440  Biso   1.000  N
  H290     1.0000 0.26890  0.98760  0.44170  Biso   1.000  H
  N111     1.0000 0.52780  0.87600  0.38173  Biso   1.000  N
  H291     1.0000 0.55600  0.86140  0.38070  Biso   1.000  H
  N112     1.0000 0.53810  0.84410  0.42408  Biso   1.000  N
  H292     1.0000 0.56450  0.83140  0.41890  Biso   1.000  H
  N113     1.0000 0.50650  0.79570  0.53256  Biso   1.000  N
  H293     1.0000 0.48480  0.81200  0.53920  Biso   1.000  H
  N114     1.0000 0.50650  0.76179  0.57440  Biso   1.000  N
  H294     1.0000 0.48780  0.78340  0.57740  Biso   1.000  H
  N115     1.0000 0.45670  0.71333  0.74720  Biso   1.000  N
  N116     1.0000 0.49110  0.75273  0.78473  Biso   1.000  N
  H295     1.0000 0.49410  0.77050  0.79870  Biso   1.000  H
  N117     1.0000 0.53330  0.73132  0.77525  Biso   1.000  N
  N118     1.0000 0.34210  0.52186  0.73210  Biso   1.000  N
  H296     1.0000 0.35070  0.49560  0.73440  Biso   1.000  H
  N119     1.0000 0.29870  0.54223  0.74074  Biso   1.000  N
  N120     1.0000 0.34350  0.58886  0.71939  Biso   1.000  N
  N121     1.0000 0.66680  0.45620  0.35904  Biso   1.000  N
  N122     1.0000 0.62420  0.47848  0.36587  Biso   1.000  N
  H297     1.0000 0.59970  0.46880  0.37420  Biso   1.000  H
  N123     1.0000 0.67030  0.52354  0.34378  Biso   1.000  N
  N124     1.0000 0.57090  0.60070  0.21262  Biso   1.000  N
  N125     1.0000 0.61292  0.57604  0.20445  Biso   1.000  N
  H298     1.0000 0.61410  0.56610  0.18770  Biso   1.000  H
  N126     1.0000 0.63537  0.59030  0.25087  Biso   1.000  N
  N127     1.0000 0.30125  0.11159  0.24186  Biso   1.000  N
  N128     1.0000 0.30870  0.13920  0.19974  Biso   1.000  N
  N129     1.0000 0.27010  0.16329  0.21092  Biso   1.000  N
  H299     1.0000 0.25210  0.18480  0.20310  Biso   1.000  H
  N130     1.0000 0.50736  0.15453  0.34951  Biso   1.000  N
  H300     1.0000 0.54130  0.15940  0.35190  Biso   1.000  H
  N131     1.0000 0.46960  0.17827  0.36142  Biso   1.000  N
  N132     1.0000 0.42760  0.12511  0.33420  Biso   1.000  N
  O13      1.0000 0.08470  0.53100  0.40019  Biso   1.000  O
  O14      1.0000 0.29660  0.60610  0.53524  Biso   1.000  O
  O15      1.0000 0.99930  0.71050  0.61011  Biso   1.000  O
  O16      1.0000 0.80810  0.67860  0.45990  Biso   1.000  O
  O17      1.0000 0.79016  0.81005  0.30213  Biso   1.000  O
  O18      1.0000 0.96450  0.01430  0.28540  Biso   1.000  O
  O19      1.0000 0.25159  0.81864  0.25285  Biso   1.000  O
  O20      1.0000 0.06160  0.65825  0.25496  Biso   1.000  O
  O21      1.0000 0.28540  0.88630  0.61050  Biso   1.000  O
  O22      1.0000 0.21410  0.04490  0.47660  Biso   1.000  O
  O23      1.0000 0.46450  0.88840  0.40807  Biso   1.000  O
  O24      1.0000 0.56340  0.74150  0.54669  Biso   1.000  O
  Pd7      1.0000 0.84565  0.54136  0.29186  Biso   1.000  Pd
  Pd8      1.0000 0.59427  0.67999  0.34121  Biso   1.000  Pd
  Pd9      1.0000 0.24062  0.74241  0.71257  Biso   1.000  Pd
  Pd10     1.0000 0.49912  0.61592  0.65860  Biso   1.000  Pd
  Pd11     1.0000 0.44506  0.98316  0.27161  Biso   1.000  Pd
  Pd12     1.0000 0.21598  0.12406  0.33640  Biso   1.000  Pd
  N133     1.0000 0.80030  0.74036  0.24575  Biso   1.000  N
  C361     1.0000 0.99030  0.65170  0.96450  Biso   1.000  C
  H301     1.0000 0.96640  0.63180  0.95470  Biso   1.000  H
  C362     1.0000 0.98620  0.66280  0.99090  Biso   1.000  C
  H302     1.0000 0.96260  0.64800  0.99980  Biso   1.000  H
  C363     1.0000 0.05820  0.69570  0.96740  Biso   1.000  C
  H303     1.0000 0.08680  0.70640  0.96020  Biso   1.000  H
  C364     1.0000 0.05180  0.71070  0.99420  Biso   1.000  C
  H304     1.0000 0.07370  0.73200  0.00390  Biso   1.000  H
  C365     1.0000 0.30050  0.98370  0.73191  Biso   1.000  C
  H305     1.0000 0.33410  0.99610  0.73320  Biso   1.000  H
  C366     1.0000 0.26280  0.98580  0.70591  Biso   1.000  C
  H306     1.0000 0.27150  0.99960  0.69020  Biso   1.000  H
  C367     1.0000 0.21090  0.96700  0.70335  Biso   1.000  C
  H307     1.0000 0.18550  0.96700  0.68610  Biso   1.000  H
  C368     1.0000 0.20090  0.94817  0.72886  Biso   1.000  C
  C369     1.0000 0.23910  0.94705  0.75305  Biso   1.000  C
  H308     1.0000 0.23140  0.93410  0.76930  Biso   1.000  H
  C370     1.0000 0.14890  0.92760  0.72847  Biso   1.000  C
  C371     1.0000 0.08670  0.89370  0.74086  Biso   1.000  C
  C372     1.0000 0.05660  0.86840  0.75666  Biso   1.000  C
  C373     1.0000 0.00590  0.85220  0.74380  Biso   1.000  C
  H309     1.0000 0.98970  0.85820  0.72480  Biso   1.000  H
  C374     1.0000 0.98130  0.82670  0.76090  Biso   1.000  C
  H310     1.0000 0.94760  0.81540  0.75330  Biso   1.000  H
  C375     1.0000 0.00610  0.81790  0.78910  Biso   1.000  C
  H311     1.0000 0.98800  0.80170  0.80040  Biso   1.000  H
  C376     1.0000 0.07920  0.85803  0.78397  Biso   1.000  C
  H312     1.0000 0.11290  0.86900  0.79200  Biso   1.000  H
  C377     1.0000 0.32820  0.04290  0.81300  Biso   1.000  C
  H313     1.0000 0.35770  0.04880  0.80490  Biso   1.000  H
  C378     1.0000 0.30610  0.07550  0.82652  Biso   1.000  C
  H314     1.0000 0.32140  0.10240  0.82780  Biso   1.000  H
  C379     1.0000 0.26200  0.06780  0.83793  Biso   1.000  C
  H315     1.0000 0.24650  0.08920  0.84690  Biso   1.000  H
  C380     1.0000 0.24090  0.02716  0.83575  Biso   1.000  C
  C381     1.0000 0.26530  0.99570  0.82163  Biso   1.000  C
  H316     1.0000 0.25070  0.96860  0.81950  Biso   1.000  H
  C382     1.0000 0.19310  0.01470  0.84652  Biso   1.000  C
  C383     1.0000 0.12890  0.98240  0.85704  Biso   1.000  C
  C384     1.0000 0.09240  0.94960  0.86084  Biso   1.000  C
  C385     1.0000 0.04690  0.95460  0.87290  Biso   1.000  C
  H317     1.0000 0.03910  0.98080  0.88000  Biso   1.000  H
  C386     1.0000 0.01370  0.92050  0.87410  Biso   1.000  C
  H318     1.0000 0.98220  0.92430  0.88080  Biso   1.000  H
  C387     1.0000 0.02630  0.88230  0.86577  Biso   1.000  C
  H319     1.0000 0.00460  0.85930  0.86790  Biso   1.000  H
  C388     1.0000 0.10230  0.91000  0.85152  Biso   1.000  C
  H320     1.0000 0.13170  0.90580  0.84310  Biso   1.000  H
  C389     1.0000 0.69290  0.82410  0.24279  Biso   1.000  C
  H321     1.0000 0.66810  0.80270  0.24380  Biso   1.000  H
  C390     1.0000 0.68440  0.86140  0.25358  Biso   1.000  C
  H322     1.0000 0.65640  0.86530  0.26320  Biso   1.000  H
  C391     1.0000 0.72070  0.89700  0.24998  Biso   1.000  C
  H323     1.0000 0.71520  0.92440  0.25590  Biso   1.000  H
  C392     1.0000 0.76390  0.88650  0.23711  Biso   1.000  C
  C393     1.0000 0.76950  0.84490  0.22803  Biso   1.000  C
  H324     1.0000 0.79880  0.83820  0.22000  Biso   1.000  H
  C394     1.0000 0.80200  0.91830  0.23292  Biso   1.000  C
  C395     1.0000 0.86630  0.94930  0.21997  Biso   1.000  C
  C396     1.0000 0.91410  0.95840  0.20909  Biso   1.000  C
  C397     1.0000 0.94140  0.99730  0.21300  Biso   1.000  C
  H325     1.0000 0.92940  0.01890  0.22340  Biso   1.000  H
  C398     1.0000 0.98640  0.00340  0.20112  Biso   1.000  C
  H326     1.0000 0.00530  0.02880  0.20330  Biso   1.000  H
  C399     1.0000 0.00230  0.96890  0.18555  Biso   1.000  C
  H327     1.0000 0.03240  0.97250  0.17750  Biso   1.000  H
  C400     1.0000 0.93420  0.92640  0.19343  Biso   1.000  C
  H328     1.0000 0.91720  0.90020  0.19110  Biso   1.000  H
  C401     1.0000 0.79130  0.71580  0.26808  Biso   1.000  C
  H329     1.0000 0.75670  0.70600  0.26780  Biso   1.000  H
  C402     1.0000 0.83170  0.70550  0.29074  Biso   1.000  C
  H330     1.0000 0.82470  0.68840  0.30550  Biso   1.000  H
  C403     1.0000 0.88540  0.72150  0.29172  Biso   1.000  C
  H331     1.0000 0.91340  0.71580  0.30730  Biso   1.000  H
  C404     1.0000 0.89380  0.74517  0.26892  Biso   1.000  C
  C405     1.0000 0.85130  0.75450  0.24661  Biso   1.000  C
  H332     1.0000 0.85760  0.77110  0.23150  Biso   1.000  H
  C406     1.0000 0.94630  0.76030  0.26767  Biso   1.000  C
  C407     1.0000 0.01000  0.79060  0.25329  Biso   1.000  C
  C408     1.0000 0.04110  0.81601  0.23801  Biso   1.000  C
  C409     1.0000 0.09470  0.82510  0.24665  Biso   1.000  C
  H333     1.0000 0.11310  0.81450  0.26420  Biso   1.000  H
  C410     1.0000 0.12200  0.84870  0.23103  Biso   1.000  C
  H334     1.0000 0.15870  0.85330  0.23710  Biso   1.000  H
  C411     1.0000 0.09280  0.86630  0.20494  Biso   1.000  C
  H335     1.0000 0.11020  0.88380  0.19410  Biso   1.000  H
  C412     1.0000 0.01380  0.83357  0.21138  Biso   1.000  C
  H336     1.0000 0.97730  0.82820  0.20470  Biso   1.000  H
  C413     1.0000 0.04730  0.47020  0.79089  Biso   1.000  C
  H337     1.0000 0.06110  0.49210  0.78150  Biso   1.000  H
  C414     1.0000 0.08160  0.43987  0.80471  Biso   1.000  C
  H338     1.0000 0.11790  0.44090  0.80420  Biso   1.000  H
  C415     1.0000 0.06200  0.40710  0.81976  Biso   1.000  C
  H339     1.0000 0.08480  0.38680  0.82990  Biso   1.000  H
  C416     1.0000 0.00570  0.40663  0.81869  Biso   1.000  C
  C417     1.0000 0.97400  0.43897  0.80398  Biso   1.000  C
  H340     1.0000 0.93740  0.43900  0.80380  Biso   1.000  H
  C418     1.0000 0.98100  0.37600  0.83435  Biso   1.000  C
  C419     1.0000 0.92440  0.34240  0.85162  Biso   1.000  C
  C420     1.0000 0.87260  0.32750  0.85869  Biso   1.000  C
  C421     1.0000 0.87160  0.29430  0.87600  Biso   1.000  C
  H341     1.0000 0.90330  0.28120  0.88530  Biso   1.000  H
  C422     1.0000 0.82090  0.27940  0.87990  Biso   1.000  C
  H342     1.0000 0.81750  0.25340  0.88860  Biso   1.000  H
  C423     1.0000 0.77660  0.30500  0.87014  Biso   1.000  C
  H343     1.0000 0.74400  0.29850  0.87510  Biso   1.000  H
  C424     1.0000 0.82970  0.35000  0.84902  Biso   1.000  C
  H344     1.0000 0.83310  0.37440  0.83860  Biso   1.000  H
  C425     1.0000 0.93760  0.48390  0.71253  Biso   1.000  C
  H345     1.0000 0.96280  0.50500  0.71150  Biso   1.000  H
  C426     1.0000 0.92020  0.45790  0.68900  Biso   1.000  C
  H346     1.0000 0.93300  0.46170  0.67220  Biso   1.000  H
  C427     1.0000 0.88320  0.42620  0.69075  Biso   1.000  C
  H347     1.0000 0.87220  0.40760  0.67540  Biso   1.000  H
  C428     1.0000 0.86340  0.42253  0.71515  Biso   1.000  C
  C429     1.0000 0.88260  0.44936  0.73745  Biso   1.000  C
  H348     1.0000 0.86930  0.44650  0.75420  Biso   1.000  H
  C430     1.0000 0.82400  0.39050  0.71878  Biso   1.000  C
  C431     1.0000 0.76800  0.35410  0.73513  Biso   1.000  C
  C432     1.0000 0.73370  0.33830  0.75279  Biso   1.000  C
  C433     1.0000 0.69820  0.30390  0.74560  Biso   1.000  C
  H349     1.0000 0.69480  0.28980  0.72810  Biso   1.000  H
  C434     1.0000 0.66810  0.29170  0.76590  Biso   1.000  C
  H350     1.0000 0.64410  0.26930  0.76140  Biso   1.000  H
  C435     1.0000 0.67270  0.31130  0.79180  Biso   1.000  C
  H351     1.0000 0.65210  0.30240  0.80470  Biso   1.000  H
  C436     1.0000 0.73620  0.35770  0.77970  Biso   1.000  C
  H352     1.0000 0.75860  0.38100  0.78470  Biso   1.000  H
  C437     1.0000 0.44040  0.97560  0.83778  Biso   1.000  C
  H353     1.0000 0.44170  0.00050  0.82750  Biso   1.000  H
  C438     1.0000 0.48130  0.96800  0.86123  Biso   1.000  C
  H354     1.0000 0.50840  0.98790  0.86680  Biso   1.000  H
  C439     1.0000 0.48180  0.93130  0.87619  Biso   1.000  C
  C440     1.0000 0.43610  0.90440  0.86670  Biso   1.000  C
  H355     1.0000 0.43360  0.87890  0.87620  Biso   1.000  H
  C441     1.0000 0.39710  0.91570  0.84439  Biso   1.000  C
  H356     1.0000 0.36690  0.89840  0.83960  Biso   1.000  H
  C442     1.0000 0.56800  0.93840  0.90960  Biso   1.000  C
  C443     1.0000 0.65590  0.91930  0.94328  Biso   1.000  C
  C444     1.0000 0.67950  0.95910  0.94396  Biso   1.000  C
  H357     1.0000 0.66280  0.98040  0.93180  Biso   1.000  H
  C445     1.0000 0.72810  0.96710  0.96288  Biso   1.000  C
  H358     1.0000 0.74400  0.99370  0.96330  Biso   1.000  H
  C446     1.0000 0.75310  0.93520  0.98111  Biso   1.000  C
  C447     1.0000 0.72950  0.89550  0.98040  Biso   1.000  C
  H359     1.0000 0.74620  0.87420  0.99260  Biso   1.000  H
  C448     1.0000 0.68090  0.88750  0.96150  Biso   1.000  C
  H360     1.0000 0.66500  0.86090  0.96110  Biso   1.000  H
  C449     1.0000 0.82120  0.92430  0.02750  Biso   1.000  C
  C450     1.0000 0.97560  0.93210  0.10413  Biso   1.000  C
  H361     1.0000 0.01080  0.94170  0.11000  Biso   1.000  H
  C451     1.0000 0.94580  0.94410  0.07817  Biso   1.000  C
  H362     1.0000 0.96130  0.96190  0.06650  Biso   1.000  H
  C452     1.0000 0.89410  0.93100  0.06851  Biso   1.000  C
  C453     1.0000 0.87420  0.90250  0.08631  Biso   1.000  C
  H363     1.0000 0.84050  0.89040  0.08020  Biso   1.000  H
  C454     1.0000 0.90430  0.89300  0.11211  Biso   1.000  C
  H364     1.0000 0.88950  0.87590  0.12440  Biso   1.000  H
  C455     1.0000 0.70010  0.80300  0.15848  Biso   1.000  C
  H365     1.0000 0.73620  0.81050  0.16100  Biso   1.000  H
  C456     1.0000 0.66490  0.81760  0.13505  Biso   1.000  C
  H366     1.0000 0.67700  0.83560  0.12230  Biso   1.000  H
  C457     1.0000 0.61120  0.80600  0.12979  Biso   1.000  C
  C458     1.0000 0.59640  0.78110  0.15090  Biso   1.000  C
  H367     1.0000 0.56050  0.77360  0.14900  Biso   1.000  H
  C459     1.0000 0.63170  0.76740  0.17380  Biso   1.000  C
  H368     1.0000 0.61960  0.75020  0.18700  Biso   1.000  H
  C460     1.0000 0.52180  0.80920  0.09660  Biso   1.000  C
  C461     1.0000 0.45060  0.82220  0.05487  Biso   1.000  C
  C462     1.0000 0.44340  0.83370  0.02600  Biso   1.000  C
  H369     1.0000 0.47110  0.84690  0.01930  Biso   1.000  H
  C463     1.0000 0.39480  0.82540  0.00719  Biso   1.000  C
  H370     1.0000 0.39000  0.83310  0.98790  Biso   1.000  H
  C464     1.0000 0.35340  0.80560  0.01719  Biso   1.000  C
  C465     1.0000 0.36060  0.79420  0.04600  Biso   1.000  C
  H371     1.0000 0.33280  0.78090  0.05270  Biso   1.000  H
  C466     1.0000 0.40910  0.80250  0.06486  Biso   1.000  C
  H372     1.0000 0.41390  0.79480  0.08410  Biso   1.000  H
  C467     1.0000 0.28160  0.80390  0.97420  Biso   1.000  C
  C468     1.0000 0.19098  0.82200  0.88690  Biso   1.000  C
  H373     1.0000 0.20620  0.83290  0.87220  Biso   1.000  H
  C469     1.0000 0.22210  0.81750  0.91454  Biso   1.000  C
  H374     1.0000 0.25810  0.82540  0.91840  Biso   1.000  H
  C470     1.0000 0.19930  0.80120  0.93646  Biso   1.000  C
  C471     1.0000 0.14550  0.78950  0.93075  Biso   1.000  C
  H375     1.0000 0.13030  0.77860  0.94540  Biso   1.000  H
  C472     1.0000 0.11437  0.79390  0.90311  Biso   1.000  C
  H376     1.0000 0.07830  0.78610  0.89930  Biso   1.000  H
  N134     1.0000 0.13712  0.81021  0.88119  Biso   1.000  N
  C473     1.0000 0.17100  0.77160  0.81757  Biso   1.000  C
  H377     1.0000 0.18140  0.79840  0.81280  Biso   1.000  H
  C474     1.0000 0.20110  0.73660  0.81289  Biso   1.000  C
  H378     1.0000 0.22910  0.74010  0.80320  Biso   1.000  H
  C475     1.0000 0.19070  0.69900  0.82180  Biso   1.000  C
  C476     1.0000 0.14560  0.69400  0.83400  Biso   1.000  C
  H379     1.0000 0.13560  0.66720  0.83900  Biso   1.000  H
  C477     1.0000 0.11680  0.72800  0.83850  Biso   1.000  C
  H380     1.0000 0.08910  0.72480  0.84830  Biso   1.000  H
  C478     1.0000 0.27050  0.66010  0.81297  Biso   1.000  C
  C479     1.0000 0.33750  0.60500  0.80943  Biso   1.000  C
  C480     1.0000 0.36920  0.62820  0.79376  Biso   1.000  C
  H381     1.0000 0.36000  0.65620  0.78890  Biso   1.000  H
  C481     1.0000 0.41430  0.61050  0.78528  Biso   1.000  C
  H382     1.0000 0.43530  0.62590  0.77510  Biso   1.000  H
  C482     1.0000 0.42580  0.56690  0.79347  Biso   1.000  C
  C483     1.0000 0.39410  0.54550  0.80786  Biso   1.000  C
  H383     1.0000 0.40130  0.51720  0.81240  Biso   1.000  H
  C484     1.0000 0.35100  0.56480  0.81597  Biso   1.000  C
  H384     1.0000 0.33060  0.54930  0.82640  Biso   1.000  H
  C485     1.0000 0.49220  0.51530  0.78660  Biso   1.000  C
  C486     1.0000 0.66926  0.44991  0.80334  Biso   1.000  C
  H385     1.0000 0.70420  0.45380  0.80070  Biso   1.000  H
  C487     1.0000 0.62920  0.47867  0.79171  Biso   1.000  C
  H386     1.0000 0.63730  0.50180  0.78130  Biso   1.000  H
  C488     1.0000 0.57705  0.47281  0.79569  Biso   1.000  C
  C489     1.0000 0.56497  0.43820  0.81129  Biso   1.000  C
  H387     1.0000 0.53010  0.43430  0.81390  Biso   1.000  H
  C490     1.0000 0.60500  0.40945  0.82292  Biso   1.000  C
  H388     1.0000 0.59690  0.38630  0.83340  Biso   1.000  H
  N135     1.0000 0.65718  0.41530  0.81895  Biso   1.000  N
  C491     1.0000 0.90680  0.58760  0.73233  Biso   1.000  C
  H389     1.0000 0.93650  0.58010  0.72490  Biso   1.000  H
  C492     1.0000 0.87790  0.62110  0.72086  Biso   1.000  C
  H390     1.0000 0.88780  0.63620  0.70600  Biso   1.000  H
  C493     1.0000 0.83150  0.63360  0.73160  Biso   1.000  C
  C494     1.0000 0.82050  0.60990  0.75393  Biso   1.000  C
  H391     1.0000 0.79200  0.61710  0.76250  Biso   1.000  H
  C495     1.0000 0.85270  0.57480  0.76369  Biso   1.000  C
  H392     1.0000 0.84320  0.55800  0.77790  Biso   1.000  H
  C496     1.0000 0.76010  0.68686  0.72849  Biso   1.000  C
  C497     1.0000 0.68310  0.73363  0.71163  Biso   1.000  C
  C498     1.0000 0.63830  0.73302  0.68873  Biso   1.000  C
  H393     1.0000 0.63900  0.71780  0.67200  Biso   1.000  H
  C499     1.0000 0.59250  0.75567  0.69137  Biso   1.000  C
  H394     1.0000 0.56340  0.75640  0.67580  Biso   1.000  H
  C500     1.0000 0.58900  0.77693  0.71626  Biso   1.000  C
  C501     1.0000 0.63370  0.77657  0.73971  Biso   1.000  C
  H395     1.0000 0.63200  0.79060  0.75670  Biso   1.000  H
  C502     1.0000 0.68040  0.75511  0.73713  Biso   1.000  C
  H396     1.0000 0.70990  0.75500  0.75250  Biso   1.000  H
  C503     1.0000 0.52785  0.82332  0.73636  Biso   1.000  C
  C504     1.0000 0.36310  0.88581  0.75449  Biso   1.000  C
  H397     1.0000 0.32580  0.88380  0.75070  Biso   1.000  H
  C505     1.0000 0.39059  0.85880  0.74158  Biso   1.000  C
  H398     1.0000 0.37150  0.83910  0.72880  Biso   1.000  H
  C506     1.0000 0.44720  0.85856  0.74633  Biso   1.000  C
  C507     1.0000 0.47120  0.89002  0.76481  Biso   1.000  C
  H399     1.0000 0.50850  0.89250  0.76910  Biso   1.000  H
  C508     1.0000 0.44070  0.91764  0.77687  Biso   1.000  C
  H400     1.0000 0.45810  0.93900  0.78870  Biso   1.000  H
  C509     1.0000 0.77760  0.69640  0.17460  Biso   1.000  C
  H401     1.0000 0.80380  0.71680  0.17420  Biso   1.000  H
  C510     1.0000 0.77540  0.66220  0.15730  Biso   1.000  C
  H402     1.0000 0.80050  0.65960  0.14570  Biso   1.000  H
  C511     1.0000 0.73650  0.63060  0.15630  Biso   1.000  C
  C512     1.0000 0.70160  0.63720  0.17466  Biso   1.000  C
  H403     1.0000 0.67470  0.61730  0.17490  Biso   1.000  H
  C513     1.0000 0.70460  0.67070  0.19190  Biso   1.000  C
  H404     1.0000 0.68030  0.67320  0.20400  Biso   1.000  H
  C514     1.0000 0.75010  0.59270  0.11620  Biso   1.000  C
  C515     1.0000 0.73860  0.54920  0.06994  Biso   1.000  C
  C516     1.0000 0.76150  0.57710  0.05330  Biso   1.000  C
  H405     1.0000 0.77330  0.60360  0.06050  Biso   1.000  H
  C517     1.0000 0.76680  0.56540  0.02580  Biso   1.000  C
  H406     1.0000 0.78210  0.58410  0.01460  Biso   1.000  H
  C518     1.0000 0.74910  0.52580  0.01491  Biso   1.000  C
  C519     1.0000 0.72620  0.49790  0.03160  Biso   1.000  C
  H407     1.0000 0.71440  0.47150  0.02430  Biso   1.000  H
  C520     1.0000 0.72090  0.50960  0.05910  Biso   1.000  C
  H408     1.0000 0.70560  0.49100  0.07020  Biso   1.000  H
  C521     1.0000 0.73760  0.48680  0.96860  Biso   1.000  C
  C522     1.0000 0.75960  0.44690  0.87474  Biso   1.000  C
  H409     1.0000 0.77420  0.45460  0.85910  Biso   1.000  H
  C523     1.0000 0.76720  0.47247  0.89908  Biso   1.000  C
  H410     1.0000 0.78690  0.49740  0.89970  Biso   1.000  H
  C524     1.0000 0.74520  0.46090  0.92244  Biso   1.000  C
  C525     1.0000 0.71570  0.42370  0.92146  Biso   1.000  C
  H411     1.0000 0.70100  0.41590  0.93710  Biso   1.000  H
  C526     1.0000 0.70810  0.39805  0.89711  Biso   1.000  C
  H412     1.0000 0.68830  0.37320  0.89650  Biso   1.000  H
  N136     1.0000 0.73000  0.40965  0.87375  Biso   1.000  N
  C527     1.0000 0.01772  0.57494  0.81064  Biso   1.000  C
  H413     1.0000 0.03790  0.57440  0.79640  Biso   1.000  H
  C528     1.0000 0.03531  0.59857  0.83554  Biso   1.000  C
  H414     1.0000 0.06730  0.61380  0.83800  Biso   1.000  H
  C529     1.0000 0.00516  0.59946  0.85683  Biso   1.000  C
  C530     1.0000 0.95742  0.57671  0.85322  Biso   1.000  C
  H415     1.0000 0.93720  0.57730  0.86750  Biso   1.000  H
  C531     1.0000 0.93982  0.55308  0.82831  Biso   1.000  C
  H416     1.0000 0.90790  0.53790  0.82590  Biso   1.000  H
  N137     1.0000 0.96997  0.55220  0.80703  Biso   1.000  N
  C532     1.0000 0.01130  0.62690  0.90540  Biso   1.000  C
  C533     1.0000 0.02720  0.66800  0.95173  Biso   1.000  C
  C534     1.0000 0.01400  0.69370  0.00503  Biso   1.000  C
  C535     1.0000 0.02800  0.73650  0.05053  Biso   1.000  C
  C536     1.0000 0.04820  0.83510  0.11722  Biso   1.000  C
  H417     1.0000 0.07250  0.85740  0.11840  Biso   1.000  H
  C537     1.0000 0.04770  0.80330  0.09703  Biso   1.000  C
  H418     1.0000 0.07230  0.80400  0.08500  Biso   1.000  H
  C538     1.0000 0.01080  0.77030  0.09458  Biso   1.000  C
  C539     1.0000 0.97720  0.76900  0.11385  Biso   1.000  C
  H419     1.0000 0.95330  0.74670  0.11350  Biso   1.000  H
  C540     1.0000 0.97940  0.80051  0.13317  Biso   1.000  C
  H420     1.0000 0.95600  0.79940  0.14590  Biso   1.000  H
  N138     1.0000 0.28943  0.96441  0.75472  Biso   1.000  N
  N139     1.0000 0.38669  0.91528  0.77236  Biso   1.000  N
  N140     1.0000 0.39947  0.94985  0.82894  Biso   1.000  N
  N141     1.0000 0.30922  0.00436  0.81126  Biso   1.000  N
  N142     1.0000 0.06980  0.87643  0.85431  Biso   1.000  N
  N143     1.0000 0.05500  0.83218  0.80033  Biso   1.000  N
  N144     1.0000 0.12720  0.76735  0.82886  Biso   1.000  N
  N145     1.0000 0.73370  0.81448  0.23058  Biso   1.000  N
  N146     1.0000 0.68440  0.77755  0.17871  Biso   1.000  N
  N147     1.0000 0.74330  0.70225  0.19242  Biso   1.000  N
  N148     1.0000 0.04080  0.85807  0.19582  Biso   1.000  N
  N149     1.0000 0.97760  0.93310  0.18185  Biso   1.000  N
  N150     1.0000 0.95460  0.90698  0.12107  Biso   1.000  N
  N151     1.0000 0.01372  0.83369  0.13513  Biso   1.000  N
  N152     1.0000 0.99381  0.46933  0.79044  Biso   1.000  N
  N153     1.0000 0.89568  0.56427  0.75377  Biso   1.000  N
  N154     1.0000 0.91902  0.47933  0.73680  Biso   1.000  N
  N155     1.0000 0.78000  0.33936  0.85343  Biso   1.000  N
  N156     1.0000 0.70730  0.34361  0.79848  Biso   1.000  N
  N157     1.0000 0.51830  0.91730  0.89860  Biso   1.000  N
  H421     1.0000 0.51160  0.89430  0.90680  Biso   1.000  H
  N158     1.0000 0.60030  0.91030  0.92910  Biso   1.000  N
  H422     1.0000 0.58650  0.88660  0.93290  Biso   1.000  H
  N159     1.0000 0.80200  0.94690  0.00100  Biso   1.000  N
  H423     1.0000 0.82030  0.96810  0.99690  Biso   1.000  H
  N160     1.0000 0.86880  0.94140  0.04070  Biso   1.000  N
  H424     1.0000 0.88390  0.95950  0.03140  Biso   1.000  H
  N161     1.0000 0.57840  0.82030  0.10600  Biso   1.000  N
  H425     1.0000 0.59180  0.83750  0.09530  Biso   1.000  H
  N162     1.0000 0.50470  0.82680  0.07150  Biso   1.000  N
  H426     1.0000 0.52690  0.84200  0.06450  Biso   1.000  H
  N163     1.0000 0.29570  0.79230  0.00330  Biso   1.000  N
  H427     1.0000 0.27460  0.77920  0.01240  Biso   1.000  H
  N164     1.0000 0.22790  0.79140  0.96390  Biso   1.000  N
  H428     1.0000 0.21220  0.77700  0.97510  Biso   1.000  H
  N165     1.0000 0.22220  0.66310  0.82144  Biso   1.000  N
  H429     1.0000 0.20990  0.64000  0.82720  Biso   1.000  H
  N166     1.0000 0.29080  0.62131  0.81600  Biso   1.000  N
  H430     1.0000 0.27190  0.60330  0.82320  Biso   1.000  H
  N167     1.0000 0.47260  0.55200  0.78517  Biso   1.000  N
  H431     1.0000 0.49040  0.57080  0.77800  Biso   1.000  H
  N168     1.0000 0.54100  0.50580  0.78547  Biso   1.000  N
  H432     1.0000 0.55510  0.52440  0.77610  Biso   1.000  H
  N169     1.0000 0.80170  0.66733  0.71865  Biso   1.000  N
  H433     1.0000 0.80950  0.67710  0.70310  Biso   1.000  H
  N170     1.0000 0.72986  0.71106  0.70794  Biso   1.000  N
  H434     1.0000 0.73930  0.71310  0.69160  Biso   1.000  H
  N171     1.0000 0.53957  0.79558  0.71796  Biso   1.000  N
  H435     1.0000 0.51270  0.78760  0.70490  Biso   1.000  H
  N172     1.0000 0.47303  0.83091  0.73257  Biso   1.000  N
  H436     1.0000 0.45280  0.81580  0.71960  Biso   1.000  H
  N173     1.0000 0.72850  0.59850  0.13843  Biso   1.000  N
  H437     1.0000 0.70670  0.57920  0.14180  Biso   1.000  H
  N174     1.0000 0.72890  0.56120  0.09770  Biso   1.000  N
  H438     1.0000 0.70570  0.54560  0.10370  Biso   1.000  H
  N175     1.0000 0.75190  0.52310  0.98500  Biso   1.000  N
  H439     1.0000 0.76290  0.54480  0.97700  Biso   1.000  H
  N176     1.0000 0.75230  0.48950  0.94440  Biso   1.000  N
  H440     1.0000 0.76890  0.51240  0.94170  Biso   1.000  H
  N177     1.0000 0.02780  0.62400  0.88173  Biso   1.000  N
  H441     1.0000 0.05600  0.63860  0.88070  Biso   1.000  H
  N178     1.0000 0.03810  0.65590  0.92408  Biso   1.000  N
  H442     1.0000 0.06450  0.66860  0.91890  Biso   1.000  H
  N179     1.0000 0.00650  0.70430  0.03256  Biso   1.000  N
  H443     1.0000 0.98480  0.68800  0.03920  Biso   1.000  H
  N180     1.0000 0.00650  0.73821  0.07440  Biso   1.000  N
  H444     1.0000 0.98780  0.71660  0.07740  Biso   1.000  H
  N181     1.0000 0.95670  0.78667  0.24720  Biso   1.000  N
  N182     1.0000 0.99110  0.74727  0.28473  Biso   1.000  N
  H445     1.0000 0.99410  0.72950  0.29870  Biso   1.000  H
  N183     1.0000 0.03330  0.76868  0.27525  Biso   1.000  N
  N184     1.0000 0.84210  0.97814  0.23210  Biso   1.000  N
  H446     1.0000 0.85070  0.00440  0.23440  Biso   1.000  H
  N185     1.0000 0.79870  0.95777  0.24074  Biso   1.000  N
  N186     1.0000 0.84350  0.91114  0.21939  Biso   1.000  N
  N187     1.0000 0.16680  0.04380  0.85904  Biso   1.000  N
  N188     1.0000 0.12420  0.02152  0.86587  Biso   1.000  N
  H447     1.0000 0.09970  0.03120  0.87420  Biso   1.000  H
  N189     1.0000 0.17030  0.97646  0.84378  Biso   1.000  N
  N190     1.0000 0.07090  0.89930  0.71262  Biso   1.000  N
  N191     1.0000 0.11292  0.92396  0.70445  Biso   1.000  N
  H448     1.0000 0.11410  0.93390  0.68770  Biso   1.000  H
  N192     1.0000 0.13537  0.90970  0.75087  Biso   1.000  N
  N193     1.0000 0.80125  0.38841  0.74186  Biso   1.000  N
  N194     1.0000 0.80870  0.36080  0.69974  Biso   1.000  N
  N195     1.0000 0.77010  0.33671  0.71092  Biso   1.000  N
  H449     1.0000 0.75210  0.31520  0.70310  Biso   1.000  H
  N196     1.0000 0.00736  0.34547  0.84951  Biso   1.000  N
  H450     1.0000 0.04130  0.34060  0.85190  Biso   1.000  H
  N197     1.0000 0.96960  0.32173  0.86142  Biso   1.000  N
  N198     1.0000 0.92760  0.37489  0.83420  Biso   1.000  N
  O25      1.0000 0.58470  0.96900  0.90019  Biso   1.000  O
  O26      1.0000 0.79660  0.89390  0.03524  Biso   1.000  O
  O27      1.0000 0.49930  0.78950  0.11011  Biso   1.000  O
  O28      1.0000 0.30810  0.82140  0.95990  Biso   1.000  O
  O29      1.0000 0.29016  0.68995  0.80213  Biso   1.000  O
  O30      1.0000 0.46450  0.48570  0.78540  Biso   1.000  O
  O31      1.0000 0.75159  0.68136  0.75285  Biso   1.000  O
  O32      1.0000 0.56160  0.84175  0.75496  Biso   1.000  O
  O33      1.0000 0.78540  0.61370  0.11050  Biso   1.000  O
  O34      1.0000 0.71410  0.45510  0.97660  Biso   1.000  O
  O35      1.0000 0.96450  0.61160  0.90807  Biso   1.000  O
  O36      1.0000 0.06340  0.75850  0.04669  Biso   1.000  O
  Pd13     1.0000 0.34565  0.95864  0.79186  Biso   1.000  Pd
  Pd14     1.0000 0.09427  0.82001  0.84121  Biso   1.000  Pd
  Pd15     1.0000 0.74062  0.75759  0.21257  Biso   1.000  Pd
  Pd16     1.0000 0.99912  0.88408  0.15860  Biso   1.000  Pd
  Pd17     1.0000 0.94506  0.51684  0.77161  Biso   1.000  Pd
  Pd18     1.0000 0.71598  0.37594  0.83640  Biso   1.000  Pd
  N199     1.0000 0.69970  0.24036  0.25425  Biso   1.000  N
  C541     1.0000 0.50970  0.15170  0.53550  Biso   1.000  C
  H451     1.0000 0.53360  0.13180  0.54530  Biso   1.000  H
  C542     1.0000 0.51380  0.16280  0.50910  Biso   1.000  C
  H452     1.0000 0.53740  0.14800  0.50020  Biso   1.000  H
  C543     1.0000 0.44180  0.19570  0.53260  Biso   1.000  C
  H453     1.0000 0.41320  0.20640  0.53980  Biso   1.000  H
  C544     1.0000 0.44820  0.21070  0.50580  Biso   1.000  C
  H454     1.0000 0.42630  0.23200  0.49610  Biso   1.000  H
  C545     1.0000 0.19950  0.48370  0.76809  Biso   1.000  C
  H455     1.0000 0.16590  0.49610  0.76680  Biso   1.000  H
  C546     1.0000 0.23720  0.48580  0.79409  Biso   1.000  C
  H456     1.0000 0.22850  0.49960  0.80980  Biso   1.000  H
  C547     1.0000 0.28910  0.46700  0.79665  Biso   1.000  C
  H457     1.0000 0.31450  0.46700  0.81390  Biso   1.000  H
  C548     1.0000 0.29910  0.44817  0.77114  Biso   1.000  C
  C549     1.0000 0.26090  0.44705  0.74695  Biso   1.000  C
  H458     1.0000 0.26860  0.43410  0.73070  Biso   1.000  H
  C550     1.0000 0.35110  0.42760  0.77153  Biso   1.000  C
  C551     1.0000 0.41330  0.39370  0.75914  Biso   1.000  C
  C552     1.0000 0.44340  0.36840  0.74334  Biso   1.000  C
  C553     1.0000 0.49410  0.35220  0.75620  Biso   1.000  C
  H459     1.0000 0.51030  0.35820  0.77520  Biso   1.000  H
  C554     1.0000 0.51870  0.32670  0.73910  Biso   1.000  C
  H460     1.0000 0.55240  0.31540  0.74670  Biso   1.000  H
  C555     1.0000 0.49390  0.31790  0.71090  Biso   1.000  C
  H461     1.0000 0.51200  0.30170  0.69960  Biso   1.000  H
  C556     1.0000 0.42080  0.35803  0.71603  Biso   1.000  C
  H462     1.0000 0.38710  0.36900  0.70800  Biso   1.000  H
  C557     1.0000 0.17180  0.54290  0.68700  Biso   1.000  C
  H463     1.0000 0.14230  0.54880  0.69510  Biso   1.000  H
  C558     1.0000 0.19390  0.57550  0.67348  Biso   1.000  C
  H464     1.0000 0.17860  0.60240  0.67220  Biso   1.000  H
  C559     1.0000 0.23800  0.56780  0.66207  Biso   1.000  C
  H465     1.0000 0.25350  0.58920  0.65310  Biso   1.000  H
  C560     1.0000 0.25910  0.52716  0.66425  Biso   1.000  C
  C561     1.0000 0.23470  0.49570  0.67837  Biso   1.000  C
  H466     1.0000 0.24930  0.46860  0.68050  Biso   1.000  H
  C562     1.0000 0.30690  0.51470  0.65348  Biso   1.000  C
  C563     1.0000 0.37110  0.48240  0.64296  Biso   1.000  C
  C564     1.0000 0.40760  0.44960  0.63916  Biso   1.000  C
  C565     1.0000 0.45310  0.45460  0.62710  Biso   1.000  C
  H467     1.0000 0.46090  0.48080  0.62000  Biso   1.000  H
  C566     1.0000 0.48630  0.42050  0.62590  Biso   1.000  C
  H468     1.0000 0.51780  0.42430  0.61920  Biso   1.000  H
  C567     1.0000 0.47370  0.38230  0.63423  Biso   1.000  C
  H469     1.0000 0.49540  0.35930  0.63210  Biso   1.000  H
  C568     1.0000 0.39770  0.41000  0.64848  Biso   1.000  C
  H470     1.0000 0.36830  0.40580  0.65690  Biso   1.000  H
  C569     1.0000 0.80710  0.32410  0.25721  Biso   1.000  C
  H471     1.0000 0.83190  0.30270  0.25620  Biso   1.000  H
  C570     1.0000 0.81560  0.36140  0.24642  Biso   1.000  C
  H472     1.0000 0.84360  0.36530  0.23680  Biso   1.000  H
  C571     1.0000 0.77930  0.39700  0.25002  Biso   1.000  C
  H473     1.0000 0.78480  0.42440  0.24410  Biso   1.000  H
  C572     1.0000 0.73610  0.38650  0.26289  Biso   1.000  C
  C573     1.0000 0.73050  0.34490  0.27197  Biso   1.000  C
  H474     1.0000 0.70120  0.33820  0.28000  Biso   1.000  H
  C574     1.0000 0.69800  0.41830  0.26708  Biso   1.000  C
  C575     1.0000 0.63370  0.44930  0.28003  Biso   1.000  C
  C576     1.0000 0.58590  0.45840  0.29091  Biso   1.000  C
  C577     1.0000 0.55860  0.49730  0.28700  Biso   1.000  C
  H475     1.0000 0.57060  0.51890  0.27660  Biso   1.000  H
  C578     1.0000 0.51360  0.50340  0.29888  Biso   1.000  C
  H476     1.0000 0.49470  0.52880  0.29670  Biso   1.000  H
  C579     1.0000 0.49770  0.46890  0.31445  Biso   1.000  C
  H477     1.0000 0.46760  0.47250  0.32250  Biso   1.000  H
  C580     1.0000 0.56580  0.42640  0.30657  Biso   1.000  C
  H478     1.0000 0.58280  0.40020  0.30890  Biso   1.000  H
  C581     1.0000 0.70870  0.21580  0.23192  Biso   1.000  C
  H479     1.0000 0.74330  0.20600  0.23220  Biso   1.000  H
  C582     1.0000 0.66830  0.20550  0.20926  Biso   1.000  C
  H480     1.0000 0.67530  0.18840  0.19450  Biso   1.000  H
  C583     1.0000 0.61460  0.22150  0.20828  Biso   1.000  C
  H481     1.0000 0.58660  0.21580  0.19270  Biso   1.000  H
  C584     1.0000 0.60620  0.24517  0.23108  Biso   1.000  C
  C585     1.0000 0.64870  0.25450  0.25339  Biso   1.000  C
  H482     1.0000 0.64240  0.27110  0.26850  Biso   1.000  H
  C586     1.0000 0.55370  0.26030  0.23233  Biso   1.000  C
  C587     1.0000 0.49000  0.29060  0.24671  Biso   1.000  C
  C588     1.0000 0.45890  0.31601  0.26199  Biso   1.000  C
  C589     1.0000 0.40530  0.32510  0.25335  Biso   1.000  C
  H483     1.0000 0.38690  0.31450  0.23580  Biso   1.000  H
  C590     1.0000 0.37800  0.34870  0.26897  Biso   1.000  C
  H484     1.0000 0.34130  0.35330  0.26290  Biso   1.000  H
  C591     1.0000 0.40720  0.36630  0.29506  Biso   1.000  C
  H485     1.0000 0.38980  0.38380  0.30590  Biso   1.000  H
  C592     1.0000 0.48620  0.33357  0.28862  Biso   1.000  C
  H486     1.0000 0.52270  0.32820  0.29530  Biso   1.000  H
  C593     1.0000 0.45270  0.97020  0.70911  Biso   1.000  C
  H487     1.0000 0.43890  0.99210  0.71850  Biso   1.000  H
  C594     1.0000 0.41840  0.93987  0.69529  Biso   1.000  C
  H488     1.0000 0.38210  0.94090  0.69580  Biso   1.000  H
  C595     1.0000 0.43800  0.90710  0.68024  Biso   1.000  C
  H489     1.0000 0.41520  0.88680  0.67010  Biso   1.000  H
  C596     1.0000 0.49430  0.90663  0.68131  Biso   1.000  C
  C597     1.0000 0.52600  0.93897  0.69602  Biso   1.000  C
  H490     1.0000 0.56260  0.93900  0.69620  Biso   1.000  H
  C598     1.0000 0.51900  0.87600  0.66565  Biso   1.000  C
  C599     1.0000 0.57560  0.84240  0.64838  Biso   1.000  C
  C600     1.0000 0.62740  0.82750  0.64131  Biso   1.000  C
  C601     1.0000 0.62840  0.79430  0.62400  Biso   1.000  C
  H491     1.0000 0.59670  0.78120  0.61470  Biso   1.000  H
  C602     1.0000 0.67910  0.77940  0.62010  Biso   1.000  C
  H492     1.0000 0.68250  0.75340  0.61140  Biso   1.000  H
  C603     1.0000 0.72340  0.80500  0.62986  Biso   1.000  C
  H493     1.0000 0.75600  0.79850  0.62490  Biso   1.000  H
  C604     1.0000 0.67030  0.85000  0.65098  Biso   1.000  C
  H494     1.0000 0.66690  0.87440  0.66140  Biso   1.000  H
  C605     1.0000 0.56240  0.98390  0.78747  Biso   1.000  C
  H495     1.0000 0.53720  0.00500  0.78850  Biso   1.000  H
  C606     1.0000 0.57980  0.95790  0.81100  Biso   1.000  C
  H496     1.0000 0.56700  0.96170  0.82780  Biso   1.000  H
  C607     1.0000 0.61680  0.92620  0.80925  Biso   1.000  C
  H497     1.0000 0.62780  0.90760  0.82460  Biso   1.000  H
  C608     1.0000 0.63660  0.92253  0.78485  Biso   1.000  C
  C609     1.0000 0.61740  0.94936  0.76255  Biso   1.000  C
  H498     1.0000 0.63070  0.94650  0.74580  Biso   1.000  H
  C610     1.0000 0.67600  0.89050  0.78122  Biso   1.000  C
  C611     1.0000 0.73200  0.85410  0.76487  Biso   1.000  C
  C612     1.0000 0.76630  0.83830  0.74721  Biso   1.000  C
  C613     1.0000 0.80180  0.80390  0.75440  Biso   1.000  C
  H499     1.0000 0.80520  0.78980  0.77190  Biso   1.000  H
  C614     1.0000 0.83190  0.79170  0.73410  Biso   1.000  C
  H500     1.0000 0.85590  0.76930  0.73860  Biso   1.000  H
  C615     1.0000 0.82730  0.81130  0.70820  Biso   1.000  C
  H501     1.0000 0.84790  0.80240  0.69530  Biso   1.000  H
  C616     1.0000 0.76380  0.85770  0.72030  Biso   1.000  C
  H502     1.0000 0.74140  0.88100  0.71530  Biso   1.000  H
  C617     1.0000 0.05960  0.47560  0.66222  Biso   1.000  C
  H503     1.0000 0.05830  0.50050  0.67250  Biso   1.000  H
  C618     1.0000 0.01870  0.46800  0.63877  Biso   1.000  C
  H504     1.0000 0.99160  0.48790  0.63320  Biso   1.000  H
  C619     1.0000 0.01820  0.43130  0.62381  Biso   1.000  C
  C620     1.0000 0.06390  0.40440  0.63330  Biso   1.000  C
  H505     1.0000 0.06640  0.37890  0.62380  Biso   1.000  H
  C621     1.0000 0.10290  0.41570  0.65561  Biso   1.000  C
  H506     1.0000 0.13310  0.39840  0.66040  Biso   1.000  H
  C622     1.0000 0.93200  0.43840  0.59040  Biso   1.000  C
  C623     1.0000 0.84410  0.41930  0.55672  Biso   1.000  C
  C624     1.0000 0.82050  0.45910  0.55604  Biso   1.000  C
  H507     1.0000 0.83720  0.48040  0.56820  Biso   1.000  H
  C625     1.0000 0.77190  0.46710  0.53712  Biso   1.000  C
  H508     1.0000 0.75600  0.49370  0.53670  Biso   1.000  H
  C626     1.0000 0.74690  0.43520  0.51889  Biso   1.000  C
  C627     1.0000 0.77050  0.39550  0.51960  Biso   1.000  C
  H509     1.0000 0.75380  0.37420  0.50740  Biso   1.000  H
  C628     1.0000 0.81910  0.38750  0.53850  Biso   1.000  C
  H510     1.0000 0.83500  0.36090  0.53890  Biso   1.000  H
  C629     1.0000 0.67880  0.42430  0.47250  Biso   1.000  C
  C630     1.0000 0.52440  0.43210  0.39587  Biso   1.000  C
  H511     1.0000 0.48920  0.44170  0.39000  Biso   1.000  H
  C631     1.0000 0.55420  0.44410  0.42183  Biso   1.000  C
  H512     1.0000 0.53870  0.46190  0.43350  Biso   1.000  H
  C632     1.0000 0.60590  0.43100  0.43149  Biso   1.000  C
  C633     1.0000 0.62580  0.40250  0.41369  Biso   1.000  C
  H513     1.0000 0.65950  0.39040  0.41980  Biso   1.000  H
  C634     1.0000 0.59570  0.39300  0.38789  Biso   1.000  C
  H514     1.0000 0.61050  0.37590  0.37560  Biso   1.000  H
  C635     1.0000 0.79990  0.30300  0.34152  Biso   1.000  C
  H515     1.0000 0.76380  0.31050  0.33900  Biso   1.000  H
  C636     1.0000 0.83510  0.31760  0.36495  Biso   1.000  C
  H516     1.0000 0.82300  0.33560  0.37770  Biso   1.000  H
  C637     1.0000 0.88880  0.30600  0.37021  Biso   1.000  C
  C638     1.0000 0.90360  0.28110  0.34910  Biso   1.000  C
  H517     1.0000 0.93950  0.27360  0.35100  Biso   1.000  H
  C639     1.0000 0.86830  0.26740  0.32620  Biso   1.000  C
  H518     1.0000 0.88040  0.25020  0.31300  Biso   1.000  H
  C640     1.0000 0.97820  0.30920  0.40340  Biso   1.000  C
  C641     1.0000 0.04940  0.32220  0.44513  Biso   1.000  C
  C642     1.0000 0.05660  0.33370  0.47400  Biso   1.000  C
  H519     1.0000 0.02890  0.34690  0.48070  Biso   1.000  H
  C643     1.0000 0.10520  0.32540  0.49281  Biso   1.000  C
  H520     1.0000 0.11000  0.33310  0.51210  Biso   1.000  H
  C644     1.0000 0.14660  0.30560  0.48281  Biso   1.000  C
  C645     1.0000 0.13940  0.29420  0.45400  Biso   1.000  C
  H521     1.0000 0.16720  0.28090  0.44730  Biso   1.000  H
  C646     1.0000 0.09090  0.30250  0.43514  Biso   1.000  C
  H522     1.0000 0.08610  0.29480  0.41590  Biso   1.000  H
  C647     1.0000 0.21840  0.30390  0.52580  Biso   1.000  C
  C648     1.0000 0.30902  0.32200  0.61310  Biso   1.000  C
  H523     1.0000 0.29380  0.33290  0.62780  Biso   1.000  H
  C649     1.0000 0.27790  0.31750  0.58546  Biso   1.000  C
  H524     1.0000 0.24190  0.32540  0.58160  Biso   1.000  H
  C650     1.0000 0.30070  0.30120  0.56354  Biso   1.000  C
  C651     1.0000 0.35450  0.28950  0.56925  Biso   1.000  C
  H525     1.0000 0.36970  0.27860  0.55460  Biso   1.000  H
  C652     1.0000 0.38563  0.29390  0.59689  Biso   1.000  C
  H526     1.0000 0.42170  0.28610  0.60070  Biso   1.000  H
  N200     1.0000 0.36288  0.31021  0.61881  Biso   1.000  N
  C653     1.0000 0.32900  0.27160  0.68243  Biso   1.000  C
  H527     1.0000 0.31860  0.29840  0.68720  Biso   1.000  H
  C654     1.0000 0.29890  0.23660  0.68711  Biso   1.000  C
  H528     1.0000 0.27090  0.24010  0.69680  Biso   1.000  H
  C655     1.0000 0.30930  0.19900  0.67820  Biso   1.000  C
  C656     1.0000 0.35440  0.19400  0.66600  Biso   1.000  C
  H529     1.0000 0.36440  0.16720  0.66100  Biso   1.000  H
  C657     1.0000 0.38320  0.22800  0.66150  Biso   1.000  C
  H530     1.0000 0.41090  0.22480  0.65170  Biso   1.000  H
  C658     1.0000 0.22950  0.16010  0.68703  Biso   1.000  C
  C659     1.0000 0.16250  0.10500  0.69057  Biso   1.000  C
  C660     1.0000 0.13080  0.12820  0.70624  Biso   1.000  C
  H531     1.0000 0.14000  0.15620  0.71110  Biso   1.000  H
  C661     1.0000 0.08570  0.11050  0.71472  Biso   1.000  C
  H532     1.0000 0.06470  0.12590  0.72490  Biso   1.000  H
  C662     1.0000 0.07420  0.06690  0.70653  Biso   1.000  C
  C663     1.0000 0.10590  0.04550  0.69214  Biso   1.000  C
  H533     1.0000 0.09870  0.01720  0.68760  Biso   1.000  H
  C664     1.0000 0.14900  0.06480  0.68403  Biso   1.000  C
  H534     1.0000 0.16940  0.04930  0.67360  Biso   1.000  H
  C665     1.0000 0.00780  0.01530  0.71340  Biso   1.000  C
  C666     1.0000 0.83074  0.94991  0.69666  Biso   1.000  C
  H535     1.0000 0.79580  0.95380  0.69930  Biso   1.000  H
  C667     1.0000 0.87080  0.97867  0.70829  Biso   1.000  C
  H536     1.0000 0.86270  0.00180  0.71870  Biso   1.000  H
  C668     1.0000 0.92295  0.97281  0.70431  Biso   1.000  C
  C669     1.0000 0.93503  0.93820  0.68871  Biso   1.000  C
  H537     1.0000 0.96990  0.93430  0.68610  Biso   1.000  H
  C670     1.0000 0.89500  0.90945  0.67708  Biso   1.000  C
  H538     1.0000 0.90310  0.88630  0.66660  Biso   1.000  H
  N201     1.0000 0.84282  0.91530  0.68105  Biso   1.000  N
  C671     1.0000 0.59320  0.08760  0.76767  Biso   1.000  C
  H539     1.0000 0.56350  0.08010  0.77510  Biso   1.000  H
  C672     1.0000 0.62210  0.12110  0.77914  Biso   1.000  C
  H540     1.0000 0.61220  0.13620  0.79400  Biso   1.000  H
  C673     1.0000 0.66850  0.13360  0.76840  Biso   1.000  C
  C674     1.0000 0.67950  0.10990  0.74607  Biso   1.000  C
  H541     1.0000 0.70800  0.11710  0.73750  Biso   1.000  H
  C675     1.0000 0.64730  0.07480  0.73631  Biso   1.000  C
  H542     1.0000 0.65680  0.05800  0.72210  Biso   1.000  H
  C676     1.0000 0.73990  0.18686  0.77151  Biso   1.000  C
  C677     1.0000 0.81690  0.23363  0.78837  Biso   1.000  C
  C678     1.0000 0.86170  0.23302  0.81127  Biso   1.000  C
  H543     1.0000 0.86100  0.21780  0.82800  Biso   1.000  H
  C679     1.0000 0.90750  0.25567  0.80863  Biso   1.000  C
  H544     1.0000 0.93660  0.25640  0.82420  Biso   1.000  H
  C680     1.0000 0.91100  0.27693  0.78374  Biso   1.000  C
  C681     1.0000 0.86630  0.27657  0.76029  Biso   1.000  C
  H545     1.0000 0.86800  0.29060  0.74330  Biso   1.000  H
  C682     1.0000 0.81960  0.25511  0.76287  Biso   1.000  C
  H546     1.0000 0.79010  0.25500  0.74750  Biso   1.000  H
  C683     1.0000 0.97215  0.32332  0.76364  Biso   1.000  C
  C684     1.0000 0.13690  0.38581  0.74551  Biso   1.000  C
  H547     1.0000 0.17420  0.38380  0.74930  Biso   1.000  H
  C685     1.0000 0.10941  0.35880  0.75842  Biso   1.000  C
  H548     1.0000 0.12850  0.33910  0.77120  Biso   1.000  H
  C686     1.0000 0.05280  0.35856  0.75367  Biso   1.000  C
  C687     1.0000 0.02880  0.39002  0.73519  Biso   1.000  C
  H549     1.0000 0.99150  0.39250  0.73090  Biso   1.000  H
  C688     1.0000 0.05930  0.41764  0.72313  Biso   1.000  C
  H550     1.0000 0.04190  0.43900  0.71130  Biso   1.000  H
  C689     1.0000 0.72240  0.19640  0.32540  Biso   1.000  C
  H551     1.0000 0.69620  0.21680  0.32580  Biso   1.000  H
  C690     1.0000 0.72460  0.16220  0.34270  Biso   1.000  C
  H552     1.0000 0.69950  0.15960  0.35430  Biso   1.000  H
  C691     1.0000 0.76350  0.13060  0.34370  Biso   1.000  C
  C692     1.0000 0.79840  0.13720  0.32534  Biso   1.000  C
  H553     1.0000 0.82530  0.11730  0.32510  Biso   1.000  H
  C693     1.0000 0.79540  0.17070  0.30810  Biso   1.000  C
  H554     1.0000 0.81970  0.17320  0.29600  Biso   1.000  H
  C694     1.0000 0.74990  0.09270  0.38380  Biso   1.000  C
  C695     1.0000 0.76140  0.04920  0.43006  Biso   1.000  C
  C696     1.0000 0.73850  0.07710  0.44670  Biso   1.000  C
  H555     1.0000 0.72670  0.10360  0.43950  Biso   1.000  H
  C697     1.0000 0.73320  0.06540  0.47420  Biso   1.000  C
  H556     1.0000 0.71790  0.08410  0.48540  Biso   1.000  H
  C698     1.0000 0.75090  0.02580  0.48509  Biso   1.000  C
  C699     1.0000 0.77380  0.99790  0.46840  Biso   1.000  C
  H557     1.0000 0.78560  0.97150  0.47570  Biso   1.000  H
  C700     1.0000 0.77910  0.00960  0.44090  Biso   1.000  C
  H558     1.0000 0.79440  0.99100  0.42980  Biso   1.000  H
  C701     1.0000 0.76240  0.98680  0.53140  Biso   1.000  C
  C702     1.0000 0.74040  0.94690  0.62526  Biso   1.000  C
  H559     1.0000 0.72580  0.95460  0.64090  Biso   1.000  H
  C703     1.0000 0.73280  0.97247  0.60092  Biso   1.000  C
  H560     1.0000 0.71310  0.99740  0.60030  Biso   1.000  H
  C704     1.0000 0.75480  0.96090  0.57756  Biso   1.000  C
  C705     1.0000 0.78430  0.92370  0.57854  Biso   1.000  C
  H561     1.0000 0.79900  0.91590  0.56290  Biso   1.000  H
  C706     1.0000 0.79190  0.89805  0.60289  Biso   1.000  C
  H562     1.0000 0.81170  0.87320  0.60350  Biso   1.000  H
  N202     1.0000 0.77000  0.90965  0.62625  Biso   1.000  N
  C707     1.0000 0.48228  0.07494  0.68936  Biso   1.000  C
  H563     1.0000 0.46210  0.07440  0.70360  Biso   1.000  H
  C708     1.0000 0.46469  0.09857  0.66446  Biso   1.000  C
  H564     1.0000 0.43270  0.11380  0.66200  Biso   1.000  H
  C709     1.0000 0.49484  0.09946  0.64317  Biso   1.000  C
  C710     1.0000 0.54258  0.07671  0.64678  Biso   1.000  C
  H565     1.0000 0.56280  0.07730  0.63250  Biso   1.000  H
  C711     1.0000 0.56018  0.05308  0.67169  Biso   1.000  C
  H566     1.0000 0.59210  0.03790  0.67410  Biso   1.000  H
  N203     1.0000 0.53003  0.05220  0.69297  Biso   1.000  N
  C712     1.0000 0.48870  0.12690  0.59460  Biso   1.000  C
  C713     1.0000 0.47280  0.16800  0.54827  Biso   1.000  C
  C714     1.0000 0.48600  0.19370  0.49497  Biso   1.000  C
  C715     1.0000 0.47200  0.23650  0.44947  Biso   1.000  C
  C716     1.0000 0.45180  0.33510  0.38278  Biso   1.000  C
  H567     1.0000 0.42750  0.35740  0.38160  Biso   1.000  H
  C717     1.0000 0.45230  0.30330  0.40297  Biso   1.000  C
  H568     1.0000 0.42770  0.30400  0.41500  Biso   1.000  H
  C718     1.0000 0.48920  0.27030  0.40542  Biso   1.000  C
  C719     1.0000 0.52280  0.26900  0.38615  Biso   1.000  C
  H569     1.0000 0.54670  0.24670  0.38650  Biso   1.000  H
  C720     1.0000 0.52060  0.30051  0.36683  Biso   1.000  C
  H570     1.0000 0.54400  0.29940  0.35410  Biso   1.000  H
  N204     1.0000 0.21057  0.46441  0.74528  Biso   1.000  N
  N205     1.0000 0.11331  0.41528  0.72764  Biso   1.000  N
  N206     1.0000 0.10053  0.44985  0.67106  Biso   1.000  N
  N207     1.0000 0.19078  0.50436  0.68874  Biso   1.000  N
  N208     1.0000 0.43020  0.37643  0.64569  Biso   1.000  N
  N209     1.0000 0.44500  0.33218  0.69967  Biso   1.000  N
  N210     1.0000 0.37280  0.26735  0.67114  Biso   1.000  N
  N211     1.0000 0.76630  0.31448  0.26942  Biso   1.000  N
  N212     1.0000 0.81560  0.27755  0.32129  Biso   1.000  N
  N213     1.0000 0.75670  0.20225  0.30758  Biso   1.000  N
  N214     1.0000 0.45920  0.35807  0.30418  Biso   1.000  N
  N215     1.0000 0.52240  0.43310  0.31815  Biso   1.000  N
  N216     1.0000 0.54540  0.40698  0.37893  Biso   1.000  N
  N217     1.0000 0.48628  0.33369  0.36487  Biso   1.000  N
  N218     1.0000 0.50619  0.96933  0.70956  Biso   1.000  N
  N219     1.0000 0.60432  0.06427  0.74623  Biso   1.000  N
  N220     1.0000 0.58098  0.97933  0.76320  Biso   1.000  N
  N221     1.0000 0.72000  0.83936  0.64657  Biso   1.000  N
  N222     1.0000 0.79270  0.84361  0.70152  Biso   1.000  N
  N223     1.0000 0.98170  0.41730  0.60140  Biso   1.000  N
  H571     1.0000 0.98840  0.39430  0.59320  Biso   1.000  H
  N224     1.0000 0.89970  0.41030  0.57090  Biso   1.000  N
  H572     1.0000 0.91350  0.38660  0.56710  Biso   1.000  H
  N225     1.0000 0.69800  0.44690  0.49900  Biso   1.000  N
  H573     1.0000 0.67970  0.46810  0.50310  Biso   1.000  H
  N226     1.0000 0.63120  0.44140  0.45930  Biso   1.000  N
  H574     1.0000 0.61610  0.45950  0.46860  Biso   1.000  H
  N227     1.0000 0.92160  0.32030  0.39400  Biso   1.000  N
  H575     1.0000 0.90820  0.33750  0.40470  Biso   1.000  H
  N228     1.0000 0.99530  0.32680  0.42850  Biso   1.000  N
  H576     1.0000 0.97310  0.34200  0.43550  Biso   1.000  H
  N229     1.0000 0.20430  0.29230  0.49670  Biso   1.000  N
  H577     1.0000 0.22540  0.27920  0.48760  Biso   1.000  H
  N230     1.0000 0.27210  0.29140  0.53610  Biso   1.000  N
  H578     1.0000 0.28780  0.27700  0.52490  Biso   1.000  H
  N231     1.0000 0.27780  0.16310  0.67856  Biso   1.000  N
  H579     1.0000 0.29010  0.14000  0.67280  Biso   1.000  H
  N232     1.0000 0.20920  0.12131  0.68400  Biso   1.000  N
  H580     1.0000 0.22810  0.10330  0.67680  Biso   1.000  H
  N233     1.0000 0.02740  0.05200  0.71483  Biso   1.000  N
  H581     1.0000 0.00960  0.07080  0.72200  Biso   1.000  H
  N234     1.0000 0.95900  0.00580  0.71453  Biso   1.000  N
  H582     1.0000 0.94490  0.02440  0.72390  Biso   1.000  H
  N235     1.0000 0.69830  0.16733  0.78135  Biso   1.000  N
  H583     1.0000 0.69050  0.17710  0.79690  Biso   1.000  H
  N236     1.0000 0.77014  0.21106  0.79206  Biso   1.000  N
  H584     1.0000 0.76070  0.21310  0.80840  Biso   1.000  H
  N237     1.0000 0.96043  0.29558  0.78204  Biso   1.000  N
  H585     1.0000 0.98730  0.28760  0.79510  Biso   1.000  H
  N238     1.0000 0.02697  0.33091  0.76743  Biso   1.000  N
  H586     1.0000 0.04720  0.31580  0.78040  Biso   1.000  H
  N239     1.0000 0.77150  0.09850  0.36157  Biso   1.000  N
  H587     1.0000 0.79330  0.07920  0.35820  Biso   1.000  H
  N240     1.0000 0.77110  0.06120  0.40230  Biso   1.000  N
  H588     1.0000 0.79430  0.04560  0.39630  Biso   1.000  H
  N241     1.0000 0.74810  0.02310  0.51500  Biso   1.000  N
  H589     1.0000 0.73710  0.04480  0.52300  Biso   1.000  H
  N242     1.0000 0.74770  0.98950  0.55560  Biso   1.000  N
  H590     1.0000 0.73110  0.01240  0.55830  Biso   1.000  H
  N243     1.0000 0.47220  0.12400  0.61827  Biso   1.000  N
  H591     1.0000 0.44400  0.13860  0.61930  Biso   1.000  H
  N244     1.0000 0.46190  0.15590  0.57592  Biso   1.000  N
  H592     1.0000 0.43550  0.16860  0.58110  Biso   1.000  H
  N245     1.0000 0.49350  0.20430  0.46744  Biso   1.000  N
  H593     1.0000 0.51520  0.18800  0.46080  Biso   1.000  H
  N246     1.0000 0.49350  0.23821  0.42560  Biso   1.000  N
  H594     1.0000 0.51220  0.21660  0.42260  Biso   1.000  H
  N247     1.0000 0.54330  0.28667  0.25280  Biso   1.000  N
  N248     1.0000 0.50890  0.24727  0.21527  Biso   1.000  N
  H595     1.0000 0.50590  0.22950  0.20130  Biso   1.000  H
  N249     1.0000 0.46670  0.26868  0.22475  Biso   1.000  N
  N250     1.0000 0.65790  0.47814  0.26790  Biso   1.000  N
  H596     1.0000 0.64930  0.50440  0.26560  Biso   1.000  H
  N251     1.0000 0.70130  0.45777  0.25926  Biso   1.000  N
  N252     1.0000 0.65650  0.41114  0.28061  Biso   1.000  N
  N253     1.0000 0.33320  0.54380  0.64096  Biso   1.000  N
  N254     1.0000 0.37580  0.52152  0.63413  Biso   1.000  N
  H597     1.0000 0.40030  0.53120  0.62580  Biso   1.000  H
  N255     1.0000 0.32970  0.47646  0.65622  Biso   1.000  N
  N256     1.0000 0.42910  0.39930  0.78738  Biso   1.000  N
  N257     1.0000 0.38708  0.42396  0.79555  Biso   1.000  N
  H598     1.0000 0.38590  0.43390  0.81230  Biso   1.000  H
  N258     1.0000 0.36463  0.40970  0.74913  Biso   1.000  N
  N259     1.0000 0.69875  0.88841  0.75814  Biso   1.000  N
  N260     1.0000 0.69130  0.86080  0.80026  Biso   1.000  N
  N261     1.0000 0.72990  0.83671  0.78908  Biso   1.000  N
  H599     1.0000 0.74790  0.81520  0.79690  Biso   1.000  H
  N262     1.0000 0.49264  0.84547  0.65049  Biso   1.000  N
  H600     1.0000 0.45870  0.84060  0.64810  Biso   1.000  H
  N263     1.0000 0.53040  0.82173  0.63858  Biso   1.000  N
  N264     1.0000 0.57240  0.87489  0.66580  Biso   1.000  N
  O37      1.0000 0.91530  0.46900  0.59981  Biso   1.000  O
  O38      1.0000 0.70340  0.39390  0.46476  Biso   1.000  O
  O39      1.0000 0.00070  0.28950  0.38989  Biso   1.000  O
  O40      1.0000 0.19190  0.32140  0.54010  Biso   1.000  O
  O41      1.0000 0.20984  0.18995  0.69787  Biso   1.000  O
  O42      1.0000 0.03550  0.98570  0.71460  Biso   1.000  O
  O43      1.0000 0.74841  0.18136  0.74715  Biso   1.000  O
  O44      1.0000 0.93840  0.34175  0.74504  Biso   1.000  O
  O45      1.0000 0.71460  0.11370  0.38950  Biso   1.000  O
  O46      1.0000 0.78590  0.95510  0.52340  Biso   1.000  O
  O47      1.0000 0.53550  0.11160  0.59193  Biso   1.000  O
  O48      1.0000 0.43660  0.25850  0.45331  Biso   1.000  O
  Pd19     1.0000 0.15435  0.45864  0.70814  Biso   1.000  Pd
  Pd20     1.0000 0.40573  0.32001  0.65879  Biso   1.000  Pd
  Pd21     1.0000 0.75938  0.25759  0.28743  Biso   1.000  Pd
  Pd22     1.0000 0.50088  0.38408  0.34140  Biso   1.000  Pd
  Pd23     1.0000 0.55494  0.01684  0.72839  Biso   1.000  Pd
  Pd24     1.0000 0.78402  0.87594  0.66360  Biso   1.000  Pd
