data_image0
_cell_length_a       90.538
_cell_length_b       27.809
_cell_length_c       48.343
_cell_angle_alpha    90
_cell_angle_beta     119.129
_cell_angle_gamma    90

_symmetry_space_group_name_H-M    "P 1"
_symmetry_int_tables_number       1

loop_
  _symmetry_equiv_pos_as_xyz
  'x, y, z'

loop_
  _atom_site_label
  _atom_site_occupancy
  _atom_site_fract_x
  _atom_site_fract_y
  _atom_site_fract_z
  _atom_site_thermal_displace_type
  _atom_site_B_iso_or_equiv
  _atom_site_type_symbol
  Cd1      1.0000 0.29328  0.33569  0.49773  Biso   1.000  Cd
  Cd2      1.0000 0.39255  0.99205  0.55405  Biso   1.000  Cd
  Cd3      1.0000 0.34598  0.95161  0.23361  Biso   1.000  Cd
  Cd4      1.0000 0.25255  0.31195  0.18579  Biso   1.000  Cd
  Cd5      1.0000 0.35577  0.62132  0.39758  Biso   1.000  Cd
  Cd6      1.0000 0.45398  0.36350  0.62451  Biso   1.000  Cd
  Cd7      1.0000 0.46622  0.13702  0.39949  Biso   1.000  Cd
  Cd8      1.0000 0.37444  0.37889  0.17284  Biso   1.000  Cd
  O1       1.0000 0.27486  0.43700  0.38560  Biso   1.000  O
  O2       1.0000 0.26108  0.41540  0.29140  Biso   1.000  O
  O3       1.0000 0.29826  0.50250  0.35600  Biso   1.000  O
  N1       1.0000 0.28414  0.39570  0.51960  Biso   1.000  N
  N2       1.0000 0.28068  0.39590  0.45970  Biso   1.000  N
  N3       1.0000 0.23099  0.26050  0.18420  Biso   1.000  N
  N4       1.0000 0.24657  0.33630  0.22520  Biso   1.000  N
  N5       1.0000 0.37452  0.55620  0.41250  Biso   1.000  N
  N6       1.0000 0.33960  0.54960  0.38480  Biso   1.000  N
  C1       1.0000 0.28460  0.39340  0.54920  Biso   1.000  C
  C2       1.0000 0.27050  0.40260  0.55210  Biso   1.000  C
  H1       1.0000 0.26000  0.40970  0.53390  Biso   1.000  H
  C3       1.0000 0.27160  0.40170  0.58170  Biso   1.000  C
  H2       1.0000 0.26220  0.41200  0.58380  Biso   1.000  H
  C4       1.0000 0.28590  0.38640  0.60810  Biso   1.000  C
  C5       1.0000 0.29980  0.37730  0.60500  Biso   1.000  C
  H3       1.0000 0.31010  0.36990  0.62340  Biso   1.000  H
  C6       1.0000 0.29920  0.37860  0.57510  Biso   1.000  C
  H4       1.0000 0.30870  0.36950  0.57310  Biso   1.000  H
  C7       1.0000 0.28590  0.37590  0.63900  Biso   1.000  C
  H5       1.0000 0.28370  0.34170  0.64000  Biso   1.000  H
  H6       1.0000 0.27720  0.39520  0.64010  Biso   1.000  H
  H7       1.0000 0.29700  0.38420  0.65680  Biso   1.000  H
  C8       1.0000 0.27690  0.43130  0.50140  Biso   1.000  C
  H8       1.0000 0.27280  0.45700  0.50860  Biso   1.000  H
  C9       1.0000 0.27490  0.43340  0.46950  Biso   1.000  C
  C10      1.0000 0.26810  0.47310  0.45100  Biso   1.000  C
  H9       1.0000 0.26400  0.49900  0.45830  Biso   1.000  H
  C11      1.0000 0.26730  0.47550  0.42170  Biso   1.000  C
  H10      1.0000 0.26260  0.50280  0.40840  Biso   1.000  H
  C12      1.0000 0.27330  0.43770  0.41240  Biso   1.000  C
  C13      1.0000 0.27990  0.39900  0.43140  Biso   1.000  C
  H11      1.0000 0.28400  0.37300  0.42440  Biso   1.000  H
  C14      1.0000 0.26890  0.47880  0.36540  Biso   1.000  C
  H12      1.0000 0.27590  0.50720  0.37650  Biso   1.000  H
  H13      1.0000 0.25700  0.48560  0.35920  Biso   1.000  H
  C15      1.0000 0.22263  0.22250  0.16190  Biso   1.000  C
  C16      1.0000 0.21834  0.22950  0.13100  Biso   1.000  C
  H14      1.0000 0.22000  0.26040  0.12460  Biso   1.000  H
  C17      1.0000 0.21170  0.19400  0.10890  Biso   1.000  C
  H15      1.0000 0.20890  0.20020  0.08760  Biso   1.000  H
  C18      1.0000 0.20910  0.14850  0.11780  Biso   1.000  C
  C19      1.0000 0.21260  0.14130  0.14790  Biso   1.000  C
  H16      1.0000 0.21010  0.11090  0.15370  Biso   1.000  H
  C20      1.0000 0.21990  0.17820  0.17130  Biso   1.000  C
  H17      1.0000 0.22280  0.17230  0.19280  Biso   1.000  H
  C21      1.0000 0.20170  0.10680  0.09410  Biso   1.000  C
  H18      1.0000 0.19980  0.11730  0.07330  Biso   1.000  H
  H19      1.0000 0.20960  0.07970  0.10150  Biso   1.000  H
  H20      1.0000 0.19090  0.09660  0.09250  Biso   1.000  H
  C22      1.0000 0.22952  0.26430  0.20910  Biso   1.000  C
  H21      1.0000 0.22280  0.24150  0.21260  Biso   1.000  H
  C23      1.0000 0.23786  0.30290  0.23240  Biso   1.000  C
  C24      1.0000 0.23588  0.30690  0.25820  Biso   1.000  C
  H22      1.0000 0.22880  0.28460  0.26110  Biso   1.000  H
  C25      1.0000 0.24390  0.34280  0.28080  Biso   1.000  C
  H23      1.0000 0.24320  0.34410  0.29980  Biso   1.000  H
  C26      1.0000 0.25290  0.37660  0.27380  Biso   1.000  C
  C27      1.0000 0.25378  0.37220  0.24570  Biso   1.000  C
  H24      1.0000 0.25980  0.39600  0.24100  Biso   1.000  H
  C28      1.0000 0.26020  0.42150  0.32020  Biso   1.000  C
  H25      1.0000 0.26500  0.39310  0.33410  Biso   1.000  H
  H26      1.0000 0.24830  0.42570  0.31540  Biso   1.000  H
  C29      1.0000 0.39262  0.55890  0.42570  Biso   1.000  C
  C30      1.0000 0.40190  0.53080  0.41670  Biso   1.000  C
  H27      1.0000 0.39640  0.50680  0.40100  Biso   1.000  H
  C31      1.0000 0.41910  0.53660  0.42990  Biso   1.000  C
  H28      1.0000 0.42540  0.51590  0.42390  Biso   1.000  H
  C32      1.0000 0.42720  0.57220  0.45190  Biso   1.000  C
  C33      1.0000 0.41840  0.60100  0.46060  Biso   1.000  C
  H29      1.0000 0.42390  0.62550  0.47590  Biso   1.000  H
  C34      1.0000 0.40100  0.59460  0.44690  Biso   1.000  C
  H30      1.0000 0.39470  0.61600  0.45260  Biso   1.000  H
  C35      1.0000 0.44640  0.57840  0.46710  Biso   1.000  C
  H31      1.0000 0.44900  0.60170  0.45480  Biso   1.000  H
  H32      1.0000 0.45160  0.54740  0.46730  Biso   1.000  H
  H33      1.0000 0.45090  0.59010  0.48880  Biso   1.000  H
  C36      1.0000 0.36737  0.51580  0.40500  Biso   1.000  C
  H34      1.0000 0.37430  0.48800  0.40940  Biso   1.000  H
  C37      1.0000 0.34906  0.50940  0.38990  Biso   1.000  C
  C38      1.0000 0.34172  0.46470  0.38350  Biso   1.000  C
  H35      1.0000 0.34860  0.43690  0.38730  Biso   1.000  H
  C39      1.0000 0.32431  0.45960  0.37140  Biso   1.000  C
  H36      1.0000 0.31910  0.42880  0.36670  Biso   1.000  H
  C40      1.0000 0.31512  0.50020  0.36650  Biso   1.000  C
  C41      1.0000 0.32352  0.54450  0.37320  Biso   1.000  C
  H37      1.0000 0.31690  0.57280  0.36880  Biso   1.000  H
  C42      1.0000 0.28896  0.45750  0.34590  Biso   1.000  C
  H38      1.0000 0.29380  0.43380  0.36340  Biso   1.000  H
  H39      1.0000 0.28980  0.44410  0.32770  Biso   1.000  H
  C43      1.0000 0.27064  0.46690  0.33640  Biso   1.000  C
  C44      1.0000 0.26320  0.50940  0.31240  Biso   1.000  C
  H40      1.0000 0.26300  0.50070  0.29260  Biso   1.000  H
  H41      1.0000 0.27020  0.53800  0.32150  Biso   1.000  H
  H42      1.0000 0.25160  0.51600  0.30820  Biso   1.000  H
  O4       1.0000 0.40226  0.92390  0.45500  Biso   1.000  O
  O5       1.0000 0.39232  0.91280  0.36050  Biso   1.000  O
  O6       1.0000 0.42349  0.99350  0.40780  Biso   1.000  O
  N7       1.0000 0.37220  0.93370  0.54670  Biso   1.000  N
  N8       1.0000 0.38952  0.94020  0.51320  Biso   1.000  N
  N9       1.0000 0.36131  0.91010  0.21350  Biso   1.000  N
  N10      1.0000 0.36991  0.91710  0.27660  Biso   1.000  N
  N11      1.0000 0.44775  0.19910  0.39580  Biso   1.000  N
  N12      1.0000 0.44256  0.10250  0.40240  Biso   1.000  N
  C45      1.0000 0.36331  0.93440  0.56380  Biso   1.000  C
  C46      1.0000 0.34619  0.92800  0.55010  Biso   1.000  C
  H43      1.0000 0.33980  0.92160  0.52810  Biso   1.000  H
  C47      1.0000 0.33800  0.93080  0.56810  Biso   1.000  C
  H44      1.0000 0.32630  0.92350  0.55870  Biso   1.000  H
  C48      1.0000 0.34680  0.94400  0.59920  Biso   1.000  C
  C49      1.0000 0.36400  0.94890  0.61340  Biso   1.000  C
  H45      1.0000 0.37050  0.95400  0.63560  Biso   1.000  H
  C50      1.0000 0.37240  0.94630  0.59490  Biso   1.000  C
  H46      1.0000 0.38420  0.95290  0.60420  Biso   1.000  H
  C51      1.0000 0.33830  0.95300  0.61890  Biso   1.000  C
  H47      1.0000 0.32600  0.95050  0.60550  Biso   1.000  H
  H48      1.0000 0.34110  0.98530  0.62810  Biso   1.000  H
  H49      1.0000 0.34210  0.92910  0.63590  Biso   1.000  H
  C52      1.0000 0.36812  0.90620  0.52250  Biso   1.000  C
  H50      1.0000 0.35950  0.88280  0.51720  Biso   1.000  H
  C53      1.0000 0.37623  0.90970  0.50300  Biso   1.000  C
  C54      1.0000 0.37086  0.88170  0.47650  Biso   1.000  C
  H51      1.0000 0.36170  0.85980  0.47030  Biso   1.000  H
  C55      1.0000 0.37902  0.88630  0.45910  Biso   1.000  C
  H52      1.0000 0.37540  0.86810  0.44030  Biso   1.000  H
  C56      1.0000 0.39233  0.91700  0.46900  Biso   1.000  C
  C57      1.0000 0.39749  0.94270  0.49620  Biso   1.000  C
  H53      1.0000 0.40710  0.96310  0.50320  Biso   1.000  H
  C58      1.0000 0.39812  0.90310  0.42480  Biso   1.000  C
  H54      1.0000 0.38670  0.91340  0.40840  Biso   1.000  H
  H55      1.0000 0.39830  0.86760  0.42610  Biso   1.000  H
  C59      1.0000 0.35639  0.91160  0.18070  Biso   1.000  C
  C60      1.0000 0.33998  0.90480  0.15840  Biso   1.000  C
  H56      1.0000 0.33200  0.89690  0.16500  Biso   1.000  H
  C61      1.0000 0.33460  0.90900  0.12660  Biso   1.000  C
  H57      1.0000 0.32310  0.90380  0.11150  Biso   1.000  H
  C62      1.0000 0.34610  0.92080  0.11660  Biso   1.000  C
  C63      1.0000 0.36250  0.92710  0.13860  Biso   1.000  C
  H58      1.0000 0.37040  0.93500  0.13170  Biso   1.000  H
  C64      1.0000 0.36839  0.92250  0.17160  Biso   1.000  C
  H59      1.0000 0.38000  0.92660  0.18680  Biso   1.000  H
  C65      1.0000 0.34130  0.92640  0.08110  Biso   1.000  C
  H60      1.0000 0.33180  0.90500  0.06810  Biso   1.000  H
  H61      1.0000 0.35110  0.91800  0.07850  Biso   1.000  H
  H62      1.0000 0.33800  0.95980  0.07440  Biso   1.000  H
  C66      1.0000 0.37530  0.89250  0.23500  Biso   1.000  C
  H63      1.0000 0.38260  0.87770  0.22870  Biso   1.000  H
  C67      1.0000 0.38052  0.89420  0.26880  Biso   1.000  C
  C68      1.0000 0.39590  0.87810  0.29110  Biso   1.000  C
  H64      1.0000 0.40350  0.86480  0.28480  Biso   1.000  H
  C69      1.0000 0.40070  0.88100  0.32320  Biso   1.000  C
  H65      1.0000 0.41120  0.86840  0.33900  Biso   1.000  H
  C70      1.0000 0.38952  0.90320  0.33130  Biso   1.000  C
  C71      1.0000 0.37421  0.92060  0.30710  Biso   1.000  C
  H66      1.0000 0.36660  0.93560  0.31250  Biso   1.000  H
  C72      1.0000 0.40875  0.89830  0.38580  Biso   1.000  C
  H67      1.0000 0.41770  0.90870  0.38100  Biso   1.000  H
  H68      1.0000 0.40920  0.86280  0.38790  Biso   1.000  H
  C73      1.0000 0.45240  0.24890  0.39700  Biso   1.000  C
  C74      1.0000 0.45350  0.27820  0.42060  Biso   1.000  C
  H69      1.0000 0.45120  0.26560  0.43640  Biso   1.000  H
  C75      1.0000 0.45780  0.32530  0.42170  Biso   1.000  C
  H70      1.0000 0.45770  0.34570  0.43730  Biso   1.000  H
  C76      1.0000 0.46240  0.34370  0.40080  Biso   1.000  C
  C77      1.0000 0.46150  0.31550  0.37780  Biso   1.000  C
  H71      1.0000 0.46500  0.32760  0.36340  Biso   1.000  H
  C78      1.0000 0.45560  0.26810  0.37460  Biso   1.000  C
  H72      1.0000 0.45390  0.24940  0.35680  Biso   1.000  H
  C79      1.0000 0.46860  0.39660  0.40510  Biso   1.000  C
  H73      1.0000 0.46560  0.41040  0.38440  Biso   1.000  H
  H74      1.0000 0.48090  0.39750  0.41860  Biso   1.000  H
  H75      1.0000 0.46320  0.41530  0.41490  Biso   1.000  H
  C80      1.0000 0.43600  0.18750  0.40130  Biso   1.000  C
  H76      1.0000 0.42960  0.21190  0.40450  Biso   1.000  H
  C81      1.0000 0.43200  0.13610  0.40280  Biso   1.000  C
  C82      1.0000 0.41950  0.12480  0.40980  Biso   1.000  C
  H77      1.0000 0.41360  0.14950  0.41390  Biso   1.000  H
  C83      1.0000 0.41538  0.07630  0.41070  Biso   1.000  C
  H78      1.0000 0.40610  0.06760  0.41370  Biso   1.000  H
  C84      1.0000 0.42511  0.04220  0.40720  Biso   1.000  C
  C85      1.0000 0.43862  0.05780  0.40250  Biso   1.000  C
  H79      1.0000 0.44520  0.03410  0.39940  Biso   1.000  H
  C86      1.0000 0.41016  0.97630  0.41390  Biso   1.000  C
  H80      1.0000 0.39890  0.98560  0.39630  Biso   1.000  H
  H81      1.0000 0.41150  0.99040  0.43370  Biso   1.000  H
  C87      1.0000 0.41165  0.92130  0.41670  Biso   1.000  C
  C88      1.0000 0.42979  0.90680  0.44280  Biso   1.000  C
  H82      1.0000 0.43020  0.87200  0.44630  Biso   1.000  H
  H83      1.0000 0.43250  0.92360  0.46260  Biso   1.000  H
  H84      1.0000 0.43800  0.91570  0.43600  Biso   1.000  H
  O7       1.0000 0.31176  0.09560  0.14240  Biso   1.000  O
  O8       1.0000 0.28521  0.21990  0.12880  Biso   1.000  O
  O9       1.0000 0.32564  0.23430  0.14330  Biso   1.000  O
  N13      1.0000 0.32250  0.90140  0.21590  Biso   1.000  N
  N14      1.0000 0.32360  0.98800  0.18790  Biso   1.000  N
  N15      1.0000 0.23544  0.35920  0.14260  Biso   1.000  N
  N16      1.0000 0.25842  0.29200  0.14590  Biso   1.000  N
  N17      1.0000 0.38533  0.37040  0.22890  Biso   1.000  N
  N18      1.0000 0.35951  0.31720  0.18170  Biso   1.000  N
  C89      1.0000 0.32280  0.85260  0.22440  Biso   1.000  C
  C90      1.0000 0.33580  0.83530  0.25260  Biso   1.000  C
  H85      1.0000 0.34390  0.85710  0.26720  Biso   1.000  H
  C91      1.0000 0.33710  0.78640  0.25990  Biso   1.000  C
  H86      1.0000 0.34620  0.77500  0.27920  Biso   1.000  H
  C92      1.0000 0.32530  0.75470  0.23910  Biso   1.000  C
  C93      1.0000 0.31160  0.77250  0.21230  Biso   1.000  C
  H87      1.0000 0.30320  0.75100  0.19800  Biso   1.000  H
  C94      1.0000 0.30990  0.82270  0.20570  Biso   1.000  C
  H88      1.0000 0.29990  0.83520  0.18850  Biso   1.000  H
  C95      1.0000 0.32550  0.70180  0.24680  Biso   1.000  C
  H89      1.0000 0.32770  0.68270  0.23210  Biso   1.000  H
  H90      1.0000 0.31460  0.69270  0.24480  Biso   1.000  H
  H91      1.0000 0.33450  0.69590  0.26860  Biso   1.000  H
  C96      1.0000 0.30910  0.92290  0.19610  Biso   1.000  C
  H92      1.0000 0.29860  0.90740  0.18990  Biso   1.000  H
  C97      1.0000 0.30873  0.96940  0.18220  Biso   1.000  C
  C98      1.0000 0.29400  0.99510  0.16630  Biso   1.000  C
  H93      1.0000 0.28360  0.98290  0.16400  Biso   1.000  H
  C99      1.0000 0.29460  0.03880  0.15390  Biso   1.000  C
  H94      1.0000 0.28470  0.05810  0.14360  Biso   1.000  H
  C100     1.0000 0.30941  0.05460  0.15620  Biso   1.000  C
  C101     1.0000 0.32369  0.03030  0.17500  Biso   1.000  C
  H95      1.0000 0.33420  0.04380  0.17930  Biso   1.000  H
  C102     1.0000 0.29756  0.12700  0.12580  Biso   1.000  C
  H96      1.0000 0.29220  0.13410  0.13890  Biso   1.000  H
  H97      1.0000 0.28910  0.11180  0.10580  Biso   1.000  H
  C103     1.0000 0.22316  0.39480  0.14120  Biso   1.000  C
  C104     1.0000 0.21270  0.38350  0.15300  Biso   1.000  C
  H98      1.0000 0.21380  0.35310  0.16270  Biso   1.000  H
  C105     1.0000 0.20060  0.41540  0.15120  Biso   1.000  C
  H99      1.0000 0.19300  0.40620  0.15840  Biso   1.000  H
  C106     1.0000 0.19970  0.46110  0.13880  Biso   1.000  C
  C107     1.0000 0.21110  0.47330  0.12990  Biso   1.000  C
  H100     1.0000 0.21130  0.50560  0.12360  Biso   1.000  H
  C108     1.0000 0.22310  0.44010  0.12950  Biso   1.000  C
  H101     1.0000 0.23060  0.44870  0.12170  Biso   1.000  H
  C109     1.0000 0.18700  0.49930  0.13750  Biso   1.000  C
  H102     1.0000 0.17570  0.49210  0.11990  Biso   1.000  H
  H103     1.0000 0.19060  0.53120  0.13450  Biso   1.000  H
  H104     1.0000 0.18660  0.49880  0.15740  Biso   1.000  H
  C110     1.0000 0.23763  0.35410  0.11850  Biso   1.000  C
  H105     1.0000 0.23130  0.37330  0.10020  Biso   1.000  H
  C111     1.0000 0.24984  0.31880  0.11880  Biso   1.000  C
  C112     1.0000 0.25218  0.31200  0.09330  Biso   1.000  C
  H106     1.0000 0.24580  0.33040  0.07460  Biso   1.000  H
  C113     1.0000 0.26382  0.27840  0.09390  Biso   1.000  C
  H107     1.0000 0.26560  0.27370  0.07630  Biso   1.000  H
  C114     1.0000 0.27279  0.25200  0.12200  Biso   1.000  C
  C115     1.0000 0.26965  0.26060  0.14730  Biso   1.000  C
  H108     1.0000 0.27600  0.24300  0.16640  Biso   1.000  H
  C116     1.0000 0.28992  0.21010  0.10480  Biso   1.000  C
  H109     1.0000 0.29370  0.23990  0.09900  Biso   1.000  H
  H110     1.0000 0.28020  0.19690  0.08560  Biso   1.000  H
  C117     1.0000 0.40070  0.39230  0.25200  Biso   1.000  C
  C118     1.0000 0.41550  0.36720  0.27050  Biso   1.000  C
  H111     1.0000 0.41580  0.33340  0.26820  Biso   1.000  H
  C119     1.0000 0.42990  0.39200  0.29280  Biso   1.000  C
  H112     1.0000 0.44010  0.37470  0.30520  Biso   1.000  H
  C120     1.0000 0.42950  0.44120  0.29670  Biso   1.000  C
  C121     1.0000 0.41510  0.46530  0.27860  Biso   1.000  C
  H113     1.0000 0.41460  0.49890  0.28140  Biso   1.000  H
  C122     1.0000 0.40110  0.44090  0.25550  Biso   1.000  C
  H114     1.0000 0.39130  0.45900  0.24160  Biso   1.000  H
  C123     1.0000 0.44540  0.46910  0.32080  Biso   1.000  C
  H115     1.0000 0.45130  0.45070  0.34050  Biso   1.000  H
  H116     1.0000 0.44210  0.50050  0.32510  Biso   1.000  H
  H117     1.0000 0.45310  0.47370  0.31190  Biso   1.000  H
  C124     1.0000 0.38031  0.33260  0.23600  Biso   1.000  C
  H118     1.0000 0.38600  0.32180  0.25740  Biso   1.000  H
  C125     1.0000 0.36588  0.30450  0.21250  Biso   1.000  C
  C126     1.0000 0.35930  0.26840  0.22200  Biso   1.000  C
  H119     1.0000 0.36420  0.26050  0.24380  Biso   1.000  H
  C127     1.0000 0.34550  0.24290  0.19960  Biso   1.000  C
  H120     1.0000 0.34080  0.21710  0.20570  Biso   1.000  H
  C128     1.0000 0.33887  0.25580  0.16870  Biso   1.000  C
  C129     1.0000 0.34685  0.29270  0.16080  Biso   1.000  C
  H121     1.0000 0.34270  0.29980  0.13900  Biso   1.000  H
  C130     1.0000 0.31900  0.19120  0.14970  Biso   1.000  C
  H122     1.0000 0.31510  0.19810  0.16520  Biso   1.000  H
  H123     1.0000 0.32790  0.16630  0.15880  Biso   1.000  H
  C131     1.0000 0.30432  0.17330  0.11880  Biso   1.000  C
  C132     1.0000 0.31059  0.16500  0.09450  Biso   1.000  C
  H124     1.0000 0.30120  0.15280  0.07470  Biso   1.000  H
  H125     1.0000 0.31980  0.14140  0.10300  Biso   1.000  H
  H126     1.0000 0.31470  0.19540  0.09050  Biso   1.000  H
  O10      1.0000 0.34859  0.25040  0.60050  Biso   1.000  O
  O11      1.0000 0.38569  0.15320  0.61660  Biso   1.000  O
  O12      1.0000 0.39745  0.27060  0.62180  Biso   1.000  O
  N19      1.0000 0.27373  0.27580  0.49340  Biso   1.000  N
  N20      1.0000 0.30726  0.28260  0.54070  Biso   1.000  N
  N21      1.0000 0.41576  0.96140  0.59960  Biso   1.000  N
  N22      1.0000 0.39795  0.04310  0.59660  Biso   1.000  N
  N23      1.0000 0.44167  0.36000  0.56830  Biso   1.000  N
  N24      1.0000 0.42674  0.32710  0.60320  Biso   1.000  N
  C133     1.0000 0.25668  0.27230  0.46950  Biso   1.000  C
  C134     1.0000 0.24900  0.22880  0.45640  Biso   1.000  C
  H127     1.0000 0.25510  0.19960  0.46420  Biso   1.000  H
  C135     1.0000 0.23240  0.22780  0.43210  Biso   1.000  C
  H128     1.0000 0.22690  0.19780  0.42460  Biso   1.000  H
  C136     1.0000 0.22390  0.26940  0.41870  Biso   1.000  C
  C137     1.0000 0.23140  0.31270  0.43210  Biso   1.000  C
  H129     1.0000 0.22530  0.34180  0.42380  Biso   1.000  H
  C138     1.0000 0.24799  0.31420  0.45810  Biso   1.000  C
  H130     1.0000 0.25300  0.34410  0.46740  Biso   1.000  H
  C139     1.0000 0.20640  0.26940  0.38990  Biso   1.000  C
  H131     1.0000 0.20190  0.30220  0.38580  Biso   1.000  H
  H132     1.0000 0.19900  0.24830  0.39380  Biso   1.000  H
  H133     1.0000 0.20710  0.25770  0.37150  Biso   1.000  H
  C140     1.0000 0.28079  0.24120  0.51340  Biso   1.000  C
  H134     1.0000 0.27400  0.21440  0.51240  Biso   1.000  H
  C141     1.0000 0.29848  0.24120  0.53730  Biso   1.000  C
  C142     1.0000 0.30620  0.20110  0.55540  Biso   1.000  C
  H135     1.0000 0.29970  0.17330  0.55350  Biso   1.000  H
  C143     1.0000 0.32320  0.20110  0.57630  Biso   1.000  C
  H136     1.0000 0.32880  0.17310  0.58800  Biso   1.000  H
  C144     1.0000 0.33186  0.24280  0.57950  Biso   1.000  C
  C145     1.0000 0.32370  0.28230  0.56210  Biso   1.000  C
  H137     1.0000 0.33000  0.31100  0.56520  Biso   1.000  H
  C146     1.0000 0.35924  0.20880  0.61450  Biso   1.000  C
  H138     1.0000 0.35740  0.18500  0.59790  Biso   1.000  H
  H139     1.0000 0.35650  0.19340  0.62990  Biso   1.000  H
  C147     1.0000 0.42530  0.91960  0.59960  Biso   1.000  C
  C148     1.0000 0.41740  0.88090  0.58100  Biso   1.000  C
  H140     1.0000 0.40540  0.88120  0.56840  Biso   1.000  H
  C149     1.0000 0.42620  0.84120  0.57980  Biso   1.000  C
  H141     1.0000 0.42040  0.81510  0.56620  Biso   1.000  H
  C150     1.0000 0.44370  0.83940  0.59840  Biso   1.000  C
  C151     1.0000 0.45140  0.87690  0.61760  Biso   1.000  C
  H142     1.0000 0.46340  0.87590  0.63040  Biso   1.000  H
  C152     1.0000 0.44270  0.91810  0.61980  Biso   1.000  C
  H143     1.0000 0.44850  0.94330  0.63430  Biso   1.000  H
  C153     1.0000 0.45470  0.79910  0.59560  Biso   1.000  C
  H144     1.0000 0.44740  0.77620  0.57920  Biso   1.000  H
  H145     1.0000 0.46090  0.78230  0.61600  Biso   1.000  H
  H146     1.0000 0.46280  0.81320  0.59000  Biso   1.000  H
  C154     1.0000 0.42000  0.98430  0.62560  Biso   1.000  C
  H147     1.0000 0.42890  0.97240  0.64510  Biso   1.000  H
  C155     1.0000 0.41122  0.02880  0.62510  Biso   1.000  C
  C156     1.0000 0.41530  0.05410  0.65230  Biso   1.000  C
  H148     1.0000 0.42410  0.04260  0.67190  Biso   1.000  H
  C157     1.0000 0.40689  0.09610  0.65170  Biso   1.000  C
  H149     1.0000 0.40940  0.11310  0.67060  Biso   1.000  H
  C158     1.0000 0.39452  0.11230  0.62210  Biso   1.000  C
  C159     1.0000 0.39004  0.08390  0.59530  Biso   1.000  C
  H150     1.0000 0.38110  0.09420  0.57550  Biso   1.000  H
  C160     1.0000 0.38962  0.18350  0.64380  Biso   1.000  C
  H151     1.0000 0.40150  0.19470  0.65380  Biso   1.000  H
  H152     1.0000 0.38790  0.16560  0.65980  Biso   1.000  H
  C161     1.0000 0.44850  0.37940  0.54930  Biso   1.000  C
  C162     1.0000 0.43910  0.40140  0.52070  Biso   1.000  C
  H153     1.0000 0.42720  0.40400  0.51250  Biso   1.000  H
  C163     1.0000 0.44620  0.41980  0.50340  Biso   1.000  C
  H154     1.0000 0.43940  0.43480  0.48350  Biso   1.000  H
  C164     1.0000 0.46370  0.41610  0.51580  Biso   1.000  C
  C165     1.0000 0.47320  0.39330  0.54360  Biso   1.000  C
  H155     1.0000 0.48500  0.38880  0.55140  Biso   1.000  H
  C166     1.0000 0.46550  0.37660  0.56080  Biso   1.000  C
  H156     1.0000 0.47240  0.36290  0.58120  Biso   1.000  H
  C167     1.0000 0.47140  0.43680  0.49610  Biso   1.000  C
  H157     1.0000 0.46250  0.45180  0.47680  Biso   1.000  H
  H158     1.0000 0.48000  0.46100  0.50860  Biso   1.000  H
  H159     1.0000 0.47670  0.41090  0.49030  Biso   1.000  H
  C168     1.0000 0.42650  0.34810  0.55450  Biso   1.000  C
  H160     1.0000 0.42020  0.35120  0.53210  Biso   1.000  H
  C169     1.0000 0.41776  0.32970  0.57130  Biso   1.000  C
  C170     1.0000 0.40139  0.31500  0.55480  Biso   1.000  C
  H161     1.0000 0.39530  0.31750  0.53240  Biso   1.000  H
  C171     1.0000 0.39367  0.29650  0.57110  Biso   1.000  C
  H162     1.0000 0.38210  0.28710  0.56010  Biso   1.000  H
  C172     1.0000 0.40279  0.29180  0.60300  Biso   1.000  C
  C173     1.0000 0.41983  0.30740  0.61810  Biso   1.000  C
  H163     1.0000 0.42650  0.30320  0.64030  Biso   1.000  H
  C174     1.0000 0.38012  0.25350  0.60640  Biso   1.000  C
  H164     1.0000 0.37800  0.23210  0.58850  Biso   1.000  H
  H165     1.0000 0.37220  0.28100  0.59810  Biso   1.000  H
  C175     1.0000 0.37750  0.22610  0.63110  Biso   1.000  C
  C176     1.0000 0.38090  0.25970  0.65970  Biso   1.000  C
  H166     1.0000 0.37330  0.28750  0.65200  Biso   1.000  H
  H167     1.0000 0.39270  0.27090  0.66990  Biso   1.000  H
  H168     1.0000 0.37900  0.24180  0.67510  Biso   1.000  H
  O13      1.0000 0.47878  0.12930  0.52510  Biso   1.000  O
  O14      1.0000 0.47303  0.18940  0.59660  Biso   1.000  O
  O15      1.0000 0.44670  0.09360  0.55860  Biso   1.000  O
  N25      1.0000 0.48830  0.19240  0.41110  Biso   1.000  N
  N26      1.0000 0.47914  0.15640  0.45360  Biso   1.000  N
  N27      1.0000 0.46098  0.34370  0.67630  Biso   1.000  N
  N28      1.0000 0.46659  0.28900  0.63500  Biso   1.000  N
  N29      1.0000 0.37174  0.03760  0.50940  Biso   1.000  N
  N30      1.0000 0.40637  0.04730  0.53810  Biso   1.000  N
  C177     1.0000 0.49340  0.20660  0.38890  Biso   1.000  C
  C178     1.0000 0.49810  0.25270  0.38720  Biso   1.000  C
  H169     1.0000 0.49810  0.27600  0.40160  Biso   1.000  H
  C179     1.0000 0.50290  0.26650  0.36510  Biso   1.000  C
  H170     1.0000 0.50570  0.29900  0.36390  Biso   1.000  H
  C180     1.0000 0.50350  0.23270  0.34500  Biso   1.000  C
  C181     1.0000 0.49920  0.18620  0.34780  Biso   1.000  C
  H171     1.0000 0.49850  0.16320  0.33270  Biso   1.000  H
  C182     1.0000 0.49560  0.17010  0.37240  Biso   1.000  C
  H172     1.0000 0.49480  0.13720  0.37660  Biso   1.000  H
  C183     1.0000 0.50860  0.24770  0.32050  Biso   1.000  C
  H173     1.0000 0.50130  0.23150  0.30040  Biso   1.000  H
  H174     1.0000 0.52040  0.23860  0.32790  Biso   1.000  H
  H175     1.0000 0.50740  0.28260  0.31740  Biso   1.000  H
  C184     1.0000 0.49450  0.21070  0.43910  Biso   1.000  C
  H176     1.0000 0.50200  0.23700  0.44440  Biso   1.000  H
  C185     1.0000 0.49040  0.19290  0.46280  Biso   1.000  C
  C186     1.0000 0.49840  0.20960  0.49310  Biso   1.000  C
  H177     1.0000 0.50680  0.23400  0.49900  Biso   1.000  H
  C187     1.0000 0.49450  0.19150  0.51490  Biso   1.000  C
  H178     1.0000 0.49910  0.20490  0.53560  Biso   1.000  H
  C188     1.0000 0.48364  0.15360  0.50610  Biso   1.000  C
  C189     1.0000 0.47540  0.13950  0.47530  Biso   1.000  C
  H179     1.0000 0.46660  0.11660  0.46890  Biso   1.000  H
  C190     1.0000 0.48410  0.14750  0.55670  Biso   1.000  C
  H180     1.0000 0.48150  0.18230  0.55600  Biso   1.000  H
  H181     1.0000 0.49650  0.14290  0.57040  Biso   1.000  H
  C191     1.0000 0.45640  0.37270  0.69590  Biso   1.000  C
  C192     1.0000 0.45820  0.42100  0.69590  Biso   1.000  C
  H182     1.0000 0.46230  0.43550  0.68320  Biso   1.000  H
  C193     1.0000 0.45390  0.44910  0.71450  Biso   1.000  C
  H183     1.0000 0.45540  0.48300  0.71480  Biso   1.000  H
  C194     1.0000 0.44750  0.42900  0.73290  Biso   1.000  C
  C195     1.0000 0.44660  0.38140  0.73430  Biso   1.000  C
  H184     1.0000 0.44250  0.36750  0.74730  Biso   1.000  H
  C196     1.0000 0.45170  0.35110  0.71640  Biso   1.000  C
  H185     1.0000 0.45180  0.31710  0.71860  Biso   1.000  H
  C197     1.0000 0.44240  0.46170  0.75270  Biso   1.000  C
  H186     1.0000 0.45250  0.47590  0.77030  Biso   1.000  H
  H187     1.0000 0.43640  0.44250  0.76110  Biso   1.000  H
  H188     1.0000 0.43490  0.48740  0.73920  Biso   1.000  H
  C198     1.0000 0.46790  0.30210  0.68500  Biso   1.000  C
  H189     1.0000 0.47150  0.29200  0.70610  Biso   1.000  H
  C199     1.0000 0.47050  0.26970  0.66400  Biso   1.000  C
  C200     1.0000 0.47770  0.22550  0.67340  Biso   1.000  C
  H190     1.0000 0.48170  0.21510  0.69460  Biso   1.000  H
  C201     1.0000 0.47940  0.19550  0.65160  Biso   1.000  C
  H191     1.0000 0.48440  0.16460  0.65770  Biso   1.000  H
  C202     1.0000 0.47350  0.21220  0.62130  Biso   1.000  C
  C203     1.0000 0.46730  0.25950  0.61380  Biso   1.000  C
  H192     1.0000 0.46350  0.27100  0.59290  Biso   1.000  H
  C204     1.0000 0.47800  0.13970  0.60110  Biso   1.000  C
  H193     1.0000 0.47160  0.12180  0.60950  Biso   1.000  H
  H194     1.0000 0.49020  0.13690  0.61650  Biso   1.000  H
  C205     1.0000 0.35400  0.02710  0.49430  Biso   1.000  C
  C206     1.0000 0.34568  0.00530  0.46540  Biso   1.000  C
  H195     1.0000 0.35130  0.00020  0.45340  Biso   1.000  H
  C207     1.0000 0.32936  0.99080  0.45380  Biso   1.000  C
  H196     1.0000 0.32390  0.97460  0.43400  Biso   1.000  H
  C208     1.0000 0.32051  0.99890  0.47020  Biso   1.000  C
  C209     1.0000 0.32868  0.02000  0.49880  Biso   1.000  C
  H197     1.0000 0.32300  0.02590  0.51060  Biso   1.000  H
  C210     1.0000 0.34564  0.03330  0.51130  Biso   1.000  C
  H198     1.0000 0.35150  0.04690  0.53190  Biso   1.000  H
  C211     1.0000 0.30212  0.98330  0.45590  Biso   1.000  C
  H199     1.0000 0.29930  0.96210  0.43780  Biso   1.000  H
  H200     1.0000 0.29480  0.01170  0.44880  Biso   1.000  H
  H201     1.0000 0.30050  0.96600  0.47180  Biso   1.000  H
  C212     1.0000 0.37804  0.06020  0.49580  Biso   1.000  C
  H202     1.0000 0.37070  0.07260  0.47530  Biso   1.000  H
  C213     1.0000 0.39628  0.06880  0.50970  Biso   1.000  C
  C214     1.0000 0.40266  0.10020  0.49640  Biso   1.000  C
  H203     1.0000 0.39540  0.11510  0.47670  Biso   1.000  H
  C215     1.0000 0.41990  0.11020  0.51180  Biso   1.000  C
  H204     1.0000 0.42450  0.13280  0.50330  Biso   1.000  H
  C216     1.0000 0.42990  0.08700  0.53930  Biso   1.000  C
  C217     1.0000 0.42237  0.05640  0.55170  Biso   1.000  C
  H205     1.0000 0.42950  0.04140  0.57140  Biso   1.000  H
  C218     1.0000 0.45558  0.12200  0.54590  Biso   1.000  C
  H206     1.0000 0.45180  0.15590  0.54320  Biso   1.000  H
  H207     1.0000 0.45320  0.10920  0.52510  Biso   1.000  H
  C219     1.0000 0.47437  0.11900  0.56920  Biso   1.000  C
  C220     1.0000 0.48070  0.06660  0.57610  Biso   1.000  C
  H208     1.0000 0.47860  0.05090  0.55630  Biso   1.000  H
  H209     1.0000 0.47460  0.04920  0.58510  Biso   1.000  H
  H210     1.0000 0.49280  0.06620  0.59110  Biso   1.000  H
  O16      1.0000 0.40519  0.19810  0.19130  Biso   1.000  O
  O17      1.0000 0.43080  0.11310  0.26800  Biso   1.000  O
  O18      1.0000 0.39072  0.07820  0.22180  Biso   1.000  O
  N31      1.0000 0.39872  0.42220  0.18240  Biso   1.000  N
  N32      1.0000 0.39563  0.32200  0.18080  Biso   1.000  N
  N33      1.0000 0.48234  0.06870  0.40840  Biso   1.000  N
  N34      1.0000 0.45777  0.10250  0.35050  Biso   1.000  N
  N35      1.0000 0.33743  0.00880  0.25900  Biso   1.000  N
  N36      1.0000 0.36071  0.02310  0.23900  Biso   1.000  N
  C221     1.0000 0.39980  0.47240  0.17850  Biso   1.000  C
  C222     1.0000 0.41156  0.49250  0.17160  Biso   1.000  C
  H211     1.0000 0.41950  0.47280  0.16930  Biso   1.000  H
  C223     1.0000 0.41160  0.54230  0.16820  Biso   1.000  C
  H212     1.0000 0.41940  0.55600  0.16260  Biso   1.000  H
  C224     1.0000 0.40100  0.57210  0.17240  Biso   1.000  C
  C225     1.0000 0.38930  0.55250  0.17990  Biso   1.000  C
  H213     1.0000 0.38190  0.57250  0.18340  Biso   1.000  H
  C226     1.0000 0.38870  0.50180  0.18210  Biso   1.000  C
  H214     1.0000 0.38040  0.48780  0.18620  Biso   1.000  H
  C227     1.0000 0.40090  0.62610  0.16780  Biso   1.000  C
  H215     1.0000 0.39460  0.63360  0.14510  Biso   1.000  H
  H216     1.0000 0.41260  0.63760  0.17660  Biso   1.000  H
  H217     1.0000 0.39550  0.64200  0.17870  Biso   1.000  H
  C228     1.0000 0.41153  0.39490  0.19200  Biso   1.000  C
  H218     1.0000 0.42220  0.40960  0.19920  Biso   1.000  H
  C229     1.0000 0.41097  0.34240  0.19290  Biso   1.000  C
  C230     1.0000 0.42524  0.31540  0.20520  Biso   1.000  C
  H219     1.0000 0.43590  0.33080  0.21330  Biso   1.000  H
  C231     1.0000 0.42451  0.26600  0.20620  Biso   1.000  C
  H220     1.0000 0.43440  0.24670  0.21540  Biso   1.000  H
  C232     1.0000 0.40855  0.24640  0.19290  Biso   1.000  C
  C233     1.0000 0.39475  0.27480  0.18100  Biso   1.000  C
  H221     1.0000 0.38390  0.26010  0.17240  Biso   1.000  H
  C234     1.0000 0.41896  0.16820  0.21260  Biso   1.000  C
  H222     1.0000 0.42460  0.18230  0.23410  Biso   1.000  H
  H223     1.0000 0.42740  0.16510  0.20530  Biso   1.000  H
  C235     1.0000 0.49560  0.05110  0.43870  Biso   1.000  C
  C236     1.0000 0.50830  0.08070  0.45870  Biso   1.000  C
  H224     1.0000 0.50820  0.11330  0.45290  Biso   1.000  H
  C237     1.0000 0.52130  0.06470  0.48740  Biso   1.000  C
  H225     1.0000 0.53030  0.08590  0.50030  Biso   1.000  H
  C238     1.0000 0.52140  0.01830  0.49720  Biso   1.000  C
  C239     1.0000 0.50830  0.98960  0.47860  Biso   1.000  C
  H226     1.0000 0.50760  0.95880  0.48640  Biso   1.000  H
  C240     1.0000 0.49530  0.00330  0.44760  Biso   1.000  C
  H227     1.0000 0.48700  0.98110  0.43390  Biso   1.000  H
  C241     1.0000 0.53510  0.99980  0.53000  Biso   1.000  C
  H228     1.0000 0.54480  0.98770  0.52830  Biso   1.000  H
  H229     1.0000 0.53040  0.97380  0.53700  Biso   1.000  H
  H230     1.0000 0.53880  0.02620  0.54530  Biso   1.000  H
  C242     1.0000 0.47850  0.04350  0.38360  Biso   1.000  C
  H231     1.0000 0.48400  0.01370  0.38580  Biso   1.000  H
  C243     1.0000 0.46570  0.05930  0.35220  Biso   1.000  C
  C244     1.0000 0.46250  0.03300  0.32600  Biso   1.000  C
  H232     1.0000 0.46860  0.00410  0.32850  Biso   1.000  H
  C245     1.0000 0.45050  0.04720  0.29570  Biso   1.000  C
  H233     1.0000 0.44790  0.02870  0.27730  Biso   1.000  H
  C246     1.0000 0.44250  0.09130  0.29440  Biso   1.000  C
  C247     1.0000 0.44650  0.11750  0.32190  Biso   1.000  C
  H234     1.0000 0.44080  0.14720  0.32000  Biso   1.000  H
  C248     1.0000 0.42576  0.08840  0.23830  Biso   1.000  C
  H235     1.0000 0.42180  0.05540  0.23890  Biso   1.000  H
  H236     1.0000 0.43530  0.08640  0.23390  Biso   1.000  H
  C249     1.0000 0.32302  0.00240  0.26340  Biso   1.000  C
  C250     1.0000 0.30970  0.03310  0.25120  Biso   1.000  C
  H237     1.0000 0.31030  0.06170  0.24110  Biso   1.000  H
  C251     1.0000 0.29530  0.02350  0.25330  Biso   1.000  C
  H238     1.0000 0.28590  0.04490  0.24390  Biso   1.000  H
  C252     1.0000 0.29440  0.98280  0.26900  Biso   1.000  C
  C253     1.0000 0.30720  0.95200  0.27920  Biso   1.000  C
  H239     1.0000 0.30640  0.92230  0.28820  Biso   1.000  H
  C254     1.0000 0.32170  0.96170  0.27720  Biso   1.000  C
  H240     1.0000 0.33080  0.93940  0.28570  Biso   1.000  H
  C255     1.0000 0.27870  0.97140  0.27260  Biso   1.000  C
  H241     1.0000 0.26850  0.98270  0.25380  Biso   1.000  H
  H242     1.0000 0.27980  0.98760  0.29150  Biso   1.000  H
  H243     1.0000 0.27800  0.93660  0.27480  Biso   1.000  H
  C256     1.0000 0.34330  0.05050  0.26050  Biso   1.000  C
  H244     1.0000 0.34010  0.07560  0.26990  Biso   1.000  H
  C257     1.0000 0.35490  0.06110  0.24830  Biso   1.000  C
  C258     1.0000 0.36090  0.10670  0.24940  Biso   1.000  C
  H245     1.0000 0.35690  0.13250  0.25690  Biso   1.000  H
  C259     1.0000 0.37270  0.11520  0.23970  Biso   1.000  C
  H246     1.0000 0.37650  0.14690  0.23920  Biso   1.000  H
  C260     1.0000 0.37868  0.07670  0.23080  Biso   1.000  C
  C261     1.0000 0.37236  0.03120  0.23150  Biso   1.000  C
  H247     1.0000 0.37700  0.00440  0.22620  Biso   1.000  H
  C262     1.0000 0.39725  0.12540  0.22050  Biso   1.000  C
  H248     1.0000 0.40150  0.14200  0.24110  Biso   1.000  H
  H249     1.0000 0.38820  0.14530  0.20390  Biso   1.000  H
  C263     1.0000 0.41135  0.11830  0.21280  Biso   1.000  C
  C264     1.0000 0.40600  0.09240  0.18050  Biso   1.000  C
  H250     1.0000 0.39820  0.11300  0.16310  Biso   1.000  H
  H251     1.0000 0.40040  0.06190  0.17990  Biso   1.000  H
  H252     1.0000 0.41610  0.08610  0.17840  Biso   1.000  H
  O19      1.0000 0.33251  0.49960  0.19480  Biso   1.000  O
  O20      1.0000 0.33323  0.56270  0.27240  Biso   1.000  O
  O21      1.0000 0.30199  0.45800  0.21460  Biso   1.000  O
  N37      1.0000 0.35663  0.37480  0.11760  Biso   1.000  N
  N38      1.0000 0.35210  0.43080  0.16000  Biso   1.000  N
  N39      1.0000 0.37455  0.67960  0.39710  Biso   1.000  N
  N40      1.0000 0.35378  0.61900  0.34730  Biso   1.000  N
  N41      1.0000 0.27241  0.25940  0.22560  Biso   1.000  N
  N42      1.0000 0.27950  0.35160  0.21240  Biso   1.000  N
  C265     1.0000 0.35971  0.34600  0.09660  Biso   1.000  C
  C266     1.0000 0.34699  0.32160  0.07140  Biso   1.000  C
  H253     1.0000 0.33570  0.32400  0.06760  Biso   1.000  H
  C267     1.0000 0.35058  0.29350  0.05160  Biso   1.000  C
  H254     1.0000 0.34170  0.27740  0.03410  Biso   1.000  H
  C268     1.0000 0.36675  0.28900  0.05700  Biso   1.000  C
  C269     1.0000 0.37958  0.31240  0.08250  Biso   1.000  C
  H255     1.0000 0.39090  0.30890  0.08680  Biso   1.000  H
  C270     1.0000 0.37595  0.34170  0.10270  Biso   1.000  C
  H256     1.0000 0.38480  0.35790  0.12020  Biso   1.000  H
  C271     1.0000 0.37080  0.25760  0.03600  Biso   1.000  C
  H257     1.0000 0.36580  0.22570  0.03400  Biso   1.000  H
  H258     1.0000 0.38310  0.25450  0.04530  Biso   1.000  H
  H259     1.0000 0.36620  0.27230  0.01490  Biso   1.000  H
  C272     1.0000 0.34322  0.39990  0.10790  Biso   1.000  C
  H260     1.0000 0.33510  0.39930  0.08600  Biso   1.000  H
  C273     1.0000 0.33990  0.42920  0.12910  Biso   1.000  C
  C274     1.0000 0.32472  0.45240  0.11820  Biso   1.000  C
  H261     1.0000 0.31640  0.45020  0.09650  Biso   1.000  H
  C275     1.0000 0.32160  0.47910  0.13890  Biso   1.000  C
  H262     1.0000 0.31160  0.49780  0.13170  Biso   1.000  H
  C276     1.0000 0.33349  0.47740  0.17030  Biso   1.000  C
  C277     1.0000 0.34860  0.45560  0.17960  Biso   1.000  C
  H263     1.0000 0.35710  0.45820  0.20110  Biso   1.000  H
  C278     1.0000 0.31723  0.52370  0.18840  Biso   1.000  C
  H264     1.0000 0.30730  0.50430  0.17400  Biso   1.000  H
  H265     1.0000 0.31650  0.55530  0.17840  Biso   1.000  H
  C279     1.0000 0.38504  0.71170  0.42310  Biso   1.000  C
  C280     1.0000 0.40080  0.72610  0.42940  Biso   1.000  C
  H266     1.0000 0.40580  0.71250  0.41780  Biso   1.000  H
  C281     1.0000 0.40970  0.76000  0.45240  Biso   1.000  C
  H267     1.0000 0.41980  0.77380  0.45410  Biso   1.000  H
  C282     1.0000 0.40380  0.77390  0.47310  Biso   1.000  C
  C283     1.0000 0.38850  0.75920  0.46730  Biso   1.000  C
  H268     1.0000 0.38440  0.76920  0.48110  Biso   1.000  H
  C284     1.0000 0.37810  0.72890  0.44080  Biso   1.000  C
  H269     1.0000 0.36680  0.72110  0.43570  Biso   1.000  H
  C285     1.0000 0.41480  0.80700  0.50150  Biso   1.000  C
  H270     1.0000 0.41710  0.83700  0.49380  Biso   1.000  H
  H271     1.0000 0.42540  0.79070  0.51570  Biso   1.000  H
  H272     1.0000 0.40870  0.81410  0.51310  Biso   1.000  H
  C286     1.0000 0.37610  0.67800  0.37230  Biso   1.000  C
  H273     1.0000 0.38460  0.69730  0.37160  Biso   1.000  H
  C287     1.0000 0.36540  0.64780  0.34460  Biso   1.000  C
  C288     1.0000 0.36780  0.64500  0.31890  Biso   1.000  C
  H274     1.0000 0.37710  0.66120  0.31920  Biso   1.000  H
  C289     1.0000 0.35690  0.61890  0.29220  Biso   1.000  C
  H275     1.0000 0.35750  0.62040  0.27320  Biso   1.000  H
  C290     1.0000 0.34499  0.59070  0.29470  Biso   1.000  C
  C291     1.0000 0.34366  0.59310  0.32230  Biso   1.000  C
  H276     1.0000 0.33500  0.57500  0.32320  Biso   1.000  H
  C292     1.0000 0.33346  0.55830  0.24250  Biso   1.000  C
  H277     1.0000 0.34380  0.54100  0.24580  Biso   1.000  H
  H278     1.0000 0.33330  0.59050  0.23370  Biso   1.000  H
  C293     1.0000 0.26830  0.21550  0.23600  Biso   1.000  C
  C294     1.0000 0.26930  0.21290  0.26500  Biso   1.000  C
  H279     1.0000 0.27320  0.23970  0.27890  Biso   1.000  H
  C295     1.0000 0.26470  0.17140  0.27400  Biso   1.000  C
  H280     1.0000 0.26570  0.16950  0.29450  Biso   1.000  H
  C296     1.0000 0.25860  0.13210  0.25380  Biso   1.000  C
  C297     1.0000 0.25830  0.13440  0.22590  Biso   1.000  C
  H281     1.0000 0.25490  0.10710  0.21240  Biso   1.000  H
  C298     1.0000 0.26310  0.17650  0.21650  Biso   1.000  C
  H282     1.0000 0.26260  0.17790  0.19650  Biso   1.000  H
  C299     1.0000 0.25370  0.08500  0.26480  Biso   1.000  C
  H283     1.0000 0.24320  0.08990  0.26540  Biso   1.000  H
  H284     1.0000 0.26280  0.07640  0.28610  Biso   1.000  H
  H285     1.0000 0.25220  0.05900  0.25000  Biso   1.000  H
  C300     1.0000 0.28633  0.27850  0.24390  Biso   1.000  C
  H286     1.0000 0.29410  0.26160  0.26240  Biso   1.000  H
  C301     1.0000 0.29106  0.32650  0.23770  Biso   1.000  C
  C302     1.0000 0.30680  0.34460  0.25560  Biso   1.000  C
  H287     1.0000 0.31480  0.32600  0.27290  Biso   1.000  H
  C303     1.0000 0.31160  0.38950  0.24990  Biso   1.000  C
  H288     1.0000 0.32250  0.40270  0.26330  Biso   1.000  H
  C304     1.0000 0.29970  0.41360  0.22370  Biso   1.000  C
  C305     1.0000 0.28381  0.39290  0.20610  Biso   1.000  C
  H289     1.0000 0.27560  0.41010  0.18820  Biso   1.000  H
  C306     1.0000 0.31836  0.48070  0.23470  Biso   1.000  C
  H290     1.0000 0.32760  0.46100  0.23530  Biso   1.000  H
  H291     1.0000 0.32030  0.48430  0.25660  Biso   1.000  H
  C307     1.0000 0.31778  0.53030  0.22020  Biso   1.000  C
  C308     1.0000 0.30184  0.55770  0.21480  Biso   1.000  C
  H292     1.0000 0.30240  0.59080  0.20850  Biso   1.000  H
  H293     1.0000 0.30120  0.55780  0.23450  Biso   1.000  H
  H294     1.0000 0.29180  0.54180  0.19810  Biso   1.000  H
  O22      1.0000 0.36407  0.55800  0.51510  Biso   1.000  O
  O23      1.0000 0.40067  0.48930  0.59230  Biso   1.000  O
  O24      1.0000 0.35013  0.45850  0.53830  Biso   1.000  O
  N43      1.0000 0.33557  0.68030  0.39160  Biso   1.000  N
  N44      1.0000 0.35290  0.62200  0.44390  Biso   1.000  N
  N45      1.0000 0.47389  0.42310  0.63330  Biso   1.000  N
  N46      1.0000 0.44086  0.43690  0.61800  Biso   1.000  N
  N47      1.0000 0.30387  0.28140  0.47370  Biso   1.000  N
  N48      1.0000 0.32036  0.36330  0.50670  Biso   1.000  N
  C309     1.0000 0.32868  0.71430  0.36660  Biso   1.000  C
  C310     1.0000 0.32950  0.76220  0.37290  Biso   1.000  C
  H295     1.0000 0.33460  0.77270  0.39430  Biso   1.000  H
  C311     1.0000 0.32300  0.79620  0.34890  Biso   1.000  C
  H296     1.0000 0.32340  0.82940  0.35390  Biso   1.000  H
  C312     1.0000 0.31600  0.78180  0.31760  Biso   1.000  C
  C313     1.0000 0.31500  0.73330  0.31150  Biso   1.000  C
  H297     1.0000 0.30950  0.72250  0.29020  Biso   1.000  H
  C314     1.0000 0.32200  0.69880  0.33670  Biso   1.000  C
  H298     1.0000 0.32190  0.66550  0.33220  Biso   1.000  H
  C315     1.0000 0.30900  0.81990  0.29240  Biso   1.000  C
  H299     1.0000 0.30410  0.80470  0.27150  Biso   1.000  H
  H300     1.0000 0.31800  0.84180  0.29500  Biso   1.000  H
  H301     1.0000 0.30020  0.83800  0.29420  Biso   1.000  H
  C316     1.0000 0.33340  0.68510  0.41580  Biso   1.000  C
  H302     1.0000 0.32600  0.70950  0.41540  Biso   1.000  H
  C317     1.0000 0.34174  0.65480  0.44370  Biso   1.000  C
  C318     1.0000 0.33729  0.65660  0.46690  Biso   1.000  C
  H303     1.0000 0.32940  0.67990  0.46590  Biso   1.000  H
  C319     1.0000 0.34436  0.62440  0.49210  Biso   1.000  C
  H304     1.0000 0.34120  0.62410  0.50810  Biso   1.000  H
  C320     1.0000 0.35617  0.59310  0.49250  Biso   1.000  C
  C321     1.0000 0.35990  0.59240  0.46840  Biso   1.000  C
  H305     1.0000 0.36790  0.56950  0.46920  Biso   1.000  H
  C322     1.0000 0.36095  0.55750  0.54200  Biso   1.000  C
  H306     1.0000 0.34890  0.55080  0.53480  Biso   1.000  H
  H307     1.0000 0.36390  0.58890  0.55300  Biso   1.000  H
  C323     1.0000 0.49150  0.41450  0.64300  Biso   1.000  C
  C324     1.0000 0.50020  0.38140  0.66580  Biso   1.000  C
  H308     1.0000 0.49480  0.36570  0.67580  Biso   1.000  H
  C325     1.0000 0.51670  0.36990  0.67480  Biso   1.000  C
  H309     1.0000 0.52200  0.34380  0.68890  Biso   1.000  H
  C326     1.0000 0.52550  0.39610  0.66340  Biso   1.000  C
  C327     1.0000 0.51720  0.43090  0.64210  Biso   1.000  C
  H310     1.0000 0.52340  0.44970  0.63480  Biso   1.000  H
  C328     1.0000 0.49960  0.44120  0.62980  Biso   1.000  C
  H311     1.0000 0.49390  0.46460  0.61370  Biso   1.000  H
  C329     1.0000 0.54380  0.38260  0.67200  Biso   1.000  C
  H312     1.0000 0.54520  0.38560  0.65320  Biso   1.000  H
  H313     1.0000 0.54600  0.34930  0.67970  Biso   1.000  H
  H314     1.0000 0.55170  0.40420  0.68860  Biso   1.000  H
  C330     1.0000 0.46753  0.46520  0.62550  Biso   1.000  C
  H315     1.0000 0.47440  0.49060  0.62500  Biso   1.000  H
  C331     1.0000 0.45002  0.47600  0.61730  Biso   1.000  C
  C332     1.0000 0.44303  0.52070  0.60710  Biso   1.000  C
  H316     1.0000 0.44980  0.54640  0.60670  Biso   1.000  H
  C333     1.0000 0.42607  0.52830  0.59740  Biso   1.000  C
  H317     1.0000 0.42080  0.55820  0.58880  Biso   1.000  H
  C334     1.0000 0.41704  0.48990  0.60080  Biso   1.000  C
  C335     1.0000 0.42480  0.44440  0.61030  Biso   1.000  C
  H318     1.0000 0.41830  0.41820  0.61130  Biso   1.000  H
  C336     1.0000 0.39038  0.52940  0.57390  Biso   1.000  C
  H319     1.0000 0.39170  0.53450  0.55500  Biso   1.000  H
  H320     1.0000 0.39390  0.55920  0.58680  Biso   1.000  H
  C337     1.0000 0.29630  0.23580  0.45900  Biso   1.000  C
  C338     1.0000 0.30400  0.19290  0.47150  Biso   1.000  C
  H321     1.0000 0.31480  0.19270  0.48980  Biso   1.000  H
  C339     1.0000 0.29640  0.15020  0.45810  Biso   1.000  C
  H322     1.0000 0.30200  0.12080  0.46710  Biso   1.000  H
  C340     1.0000 0.28050  0.14940  0.43150  Biso   1.000  C
  C341     1.0000 0.27300  0.19120  0.41940  Biso   1.000  C
  H323     1.0000 0.26220  0.19130  0.40080  Biso   1.000  H
  C342     1.0000 0.28050  0.23520  0.43350  Biso   1.000  C
  H324     1.0000 0.27450  0.26450  0.42530  Biso   1.000  H
  C343     1.0000 0.27190  0.10050  0.41690  Biso   1.000  C
  H325     1.0000 0.26740  0.10140  0.39390  Biso   1.000  H
  H326     1.0000 0.26270  0.09470  0.42150  Biso   1.000  H
  H327     1.0000 0.28030  0.07450  0.42600  Biso   1.000  H
  C344     1.0000 0.31934  0.28700  0.48180  Biso   1.000  C
  H328     1.0000 0.32520  0.26200  0.47790  Biso   1.000  H
  C345     1.0000 0.32833  0.33120  0.49730  Biso   1.000  C
  C346     1.0000 0.34385  0.33880  0.50230  Biso   1.000  C
  H329     1.0000 0.34900  0.31610  0.49500  Biso   1.000  H
  C347     1.0000 0.35280  0.38030  0.51840  Biso   1.000  C
  H330     1.0000 0.36430  0.38450  0.52400  Biso   1.000  H
  C348     1.0000 0.34433  0.41430  0.52560  Biso   1.000  C
  C349     1.0000 0.32786  0.40360  0.51950  Biso   1.000  C
  H331     1.0000 0.32200  0.42670  0.52500  Biso   1.000  H
  C350     1.0000 0.36737  0.46900  0.54710  Biso   1.000  C
  H332     1.0000 0.36880  0.47000  0.52800  Biso   1.000  H
  H333     1.0000 0.37490  0.44370  0.56140  Biso   1.000  H
  C351     1.0000 0.37207  0.51780  0.56390  Biso   1.000  C
  C352     1.0000 0.36950  0.51650  0.59350  Biso   1.000  C
  H334     1.0000 0.35770  0.50810  0.58690  Biso   1.000  H
  H335     1.0000 0.37200  0.54810  0.60360  Biso   1.000  H
  H336     1.0000 0.37700  0.49240  0.60850  Biso   1.000  H
  Cd9      1.0000 0.79328  0.83569  0.49773  Biso   1.000  Cd
  Cd10     1.0000 0.89255  0.49205  0.55405  Biso   1.000  Cd
  Cd11     1.0000 0.84598  0.45161  0.23361  Biso   1.000  Cd
  Cd12     1.0000 0.75255  0.81195  0.18579  Biso   1.000  Cd
  Cd13     1.0000 0.85577  0.12132  0.39758  Biso   1.000  Cd
  Cd14     1.0000 0.95398  0.86350  0.62451  Biso   1.000  Cd
  Cd15     1.0000 0.96622  0.63702  0.39949  Biso   1.000  Cd
  Cd16     1.0000 0.87444  0.87889  0.17284  Biso   1.000  Cd
  O25      1.0000 0.77486  0.93700  0.38560  Biso   1.000  O
  O26      1.0000 0.76108  0.91540  0.29140  Biso   1.000  O
  O27      1.0000 0.79826  0.00250  0.35600  Biso   1.000  O
  N49      1.0000 0.78414  0.89570  0.51960  Biso   1.000  N
  N50      1.0000 0.78068  0.89590  0.45970  Biso   1.000  N
  N51      1.0000 0.73099  0.76050  0.18420  Biso   1.000  N
  N52      1.0000 0.74657  0.83630  0.22520  Biso   1.000  N
  N53      1.0000 0.87452  0.05620  0.41250  Biso   1.000  N
  N54      1.0000 0.83960  0.04960  0.38480  Biso   1.000  N
  C353     1.0000 0.78460  0.89340  0.54920  Biso   1.000  C
  C354     1.0000 0.77050  0.90260  0.55210  Biso   1.000  C
  H337     1.0000 0.76000  0.90970  0.53390  Biso   1.000  H
  C355     1.0000 0.77160  0.90170  0.58170  Biso   1.000  C
  H338     1.0000 0.76220  0.91200  0.58380  Biso   1.000  H
  C356     1.0000 0.78590  0.88640  0.60810  Biso   1.000  C
  C357     1.0000 0.79980  0.87730  0.60500  Biso   1.000  C
  H339     1.0000 0.81010  0.86990  0.62340  Biso   1.000  H
  C358     1.0000 0.79920  0.87860  0.57510  Biso   1.000  C
  H340     1.0000 0.80870  0.86950  0.57310  Biso   1.000  H
  C359     1.0000 0.78590  0.87590  0.63900  Biso   1.000  C
  H341     1.0000 0.78370  0.84170  0.64000  Biso   1.000  H
  H342     1.0000 0.77720  0.89520  0.64010  Biso   1.000  H
  H343     1.0000 0.79700  0.88420  0.65680  Biso   1.000  H
  C360     1.0000 0.77690  0.93130  0.50140  Biso   1.000  C
  H344     1.0000 0.77280  0.95700  0.50860  Biso   1.000  H
  C361     1.0000 0.77490  0.93340  0.46950  Biso   1.000  C
  C362     1.0000 0.76810  0.97310  0.45100  Biso   1.000  C
  H345     1.0000 0.76400  0.99900  0.45830  Biso   1.000  H
  C363     1.0000 0.76730  0.97550  0.42170  Biso   1.000  C
  H346     1.0000 0.76260  0.00280  0.40840  Biso   1.000  H
  C364     1.0000 0.77330  0.93770  0.41240  Biso   1.000  C
  C365     1.0000 0.77990  0.89900  0.43140  Biso   1.000  C
  H347     1.0000 0.78400  0.87300  0.42440  Biso   1.000  H
  C366     1.0000 0.76890  0.97880  0.36540  Biso   1.000  C
  H348     1.0000 0.77590  0.00720  0.37650  Biso   1.000  H
  H349     1.0000 0.75700  0.98560  0.35920  Biso   1.000  H
  C367     1.0000 0.72263  0.72250  0.16190  Biso   1.000  C
  C368     1.0000 0.71834  0.72950  0.13100  Biso   1.000  C
  H350     1.0000 0.72000  0.76040  0.12460  Biso   1.000  H
  C369     1.0000 0.71170  0.69400  0.10890  Biso   1.000  C
  H351     1.0000 0.70890  0.70020  0.08760  Biso   1.000  H
  C370     1.0000 0.70910  0.64850  0.11780  Biso   1.000  C
  C371     1.0000 0.71260  0.64130  0.14790  Biso   1.000  C
  H352     1.0000 0.71010  0.61090  0.15370  Biso   1.000  H
  C372     1.0000 0.71990  0.67820  0.17130  Biso   1.000  C
  H353     1.0000 0.72280  0.67230  0.19280  Biso   1.000  H
  C373     1.0000 0.70170  0.60680  0.09410  Biso   1.000  C
  H354     1.0000 0.69980  0.61730  0.07330  Biso   1.000  H
  H355     1.0000 0.70960  0.57970  0.10150  Biso   1.000  H
  H356     1.0000 0.69090  0.59660  0.09250  Biso   1.000  H
  C374     1.0000 0.72952  0.76430  0.20910  Biso   1.000  C
  H357     1.0000 0.72280  0.74150  0.21260  Biso   1.000  H
  C375     1.0000 0.73786  0.80290  0.23240  Biso   1.000  C
  C376     1.0000 0.73588  0.80690  0.25820  Biso   1.000  C
  H358     1.0000 0.72880  0.78460  0.26110  Biso   1.000  H
  C377     1.0000 0.74390  0.84280  0.28080  Biso   1.000  C
  H359     1.0000 0.74320  0.84410  0.29980  Biso   1.000  H
  C378     1.0000 0.75290  0.87660  0.27380  Biso   1.000  C
  C379     1.0000 0.75378  0.87220  0.24570  Biso   1.000  C
  H360     1.0000 0.75980  0.89600  0.24100  Biso   1.000  H
  C380     1.0000 0.76020  0.92150  0.32020  Biso   1.000  C
  H361     1.0000 0.76500  0.89310  0.33410  Biso   1.000  H
  H362     1.0000 0.74830  0.92570  0.31540  Biso   1.000  H
  C381     1.0000 0.89262  0.05890  0.42570  Biso   1.000  C
  C382     1.0000 0.90190  0.03080  0.41670  Biso   1.000  C
  H363     1.0000 0.89640  0.00680  0.40100  Biso   1.000  H
  C383     1.0000 0.91910  0.03660  0.42990  Biso   1.000  C
  H364     1.0000 0.92540  0.01590  0.42390  Biso   1.000  H
  C384     1.0000 0.92720  0.07220  0.45190  Biso   1.000  C
  C385     1.0000 0.91840  0.10100  0.46060  Biso   1.000  C
  H365     1.0000 0.92390  0.12550  0.47590  Biso   1.000  H
  C386     1.0000 0.90100  0.09460  0.44690  Biso   1.000  C
  H366     1.0000 0.89470  0.11600  0.45260  Biso   1.000  H
  C387     1.0000 0.94640  0.07840  0.46710  Biso   1.000  C
  H367     1.0000 0.94900  0.10170  0.45480  Biso   1.000  H
  H368     1.0000 0.95160  0.04740  0.46730  Biso   1.000  H
  H369     1.0000 0.95090  0.09010  0.48880  Biso   1.000  H
  C388     1.0000 0.86737  0.01580  0.40500  Biso   1.000  C
  H370     1.0000 0.87430  0.98800  0.40940  Biso   1.000  H
  C389     1.0000 0.84906  0.00940  0.38990  Biso   1.000  C
  C390     1.0000 0.84172  0.96470  0.38350  Biso   1.000  C
  H371     1.0000 0.84860  0.93690  0.38730  Biso   1.000  H
  C391     1.0000 0.82431  0.95960  0.37140  Biso   1.000  C
  H372     1.0000 0.81910  0.92880  0.36670  Biso   1.000  H
  C392     1.0000 0.81512  0.00020  0.36650  Biso   1.000  C
  C393     1.0000 0.82352  0.04450  0.37320  Biso   1.000  C
  H373     1.0000 0.81690  0.07280  0.36880  Biso   1.000  H
  C394     1.0000 0.78896  0.95750  0.34590  Biso   1.000  C
  H374     1.0000 0.79380  0.93380  0.36340  Biso   1.000  H
  H375     1.0000 0.78980  0.94410  0.32770  Biso   1.000  H
  C395     1.0000 0.77064  0.96690  0.33640  Biso   1.000  C
  C396     1.0000 0.76320  0.00940  0.31240  Biso   1.000  C
  H376     1.0000 0.76300  0.00070  0.29260  Biso   1.000  H
  H377     1.0000 0.77020  0.03800  0.32150  Biso   1.000  H
  H378     1.0000 0.75160  0.01600  0.30820  Biso   1.000  H
  O28      1.0000 0.90226  0.42390  0.45500  Biso   1.000  O
  O29      1.0000 0.89232  0.41280  0.36050  Biso   1.000  O
  O30      1.0000 0.92349  0.49350  0.40780  Biso   1.000  O
  N55      1.0000 0.87220  0.43370  0.54670  Biso   1.000  N
  N56      1.0000 0.88952  0.44020  0.51320  Biso   1.000  N
  N57      1.0000 0.86131  0.41010  0.21350  Biso   1.000  N
  N58      1.0000 0.86991  0.41710  0.27660  Biso   1.000  N
  N59      1.0000 0.94775  0.69910  0.39580  Biso   1.000  N
  N60      1.0000 0.94256  0.60250  0.40240  Biso   1.000  N
  C397     1.0000 0.86331  0.43440  0.56380  Biso   1.000  C
  C398     1.0000 0.84619  0.42800  0.55010  Biso   1.000  C
  H379     1.0000 0.83980  0.42160  0.52810  Biso   1.000  H
  C399     1.0000 0.83800  0.43080  0.56810  Biso   1.000  C
  H380     1.0000 0.82630  0.42350  0.55870  Biso   1.000  H
  C400     1.0000 0.84680  0.44400  0.59920  Biso   1.000  C
  C401     1.0000 0.86400  0.44890  0.61340  Biso   1.000  C
  H381     1.0000 0.87050  0.45400  0.63560  Biso   1.000  H
  C402     1.0000 0.87240  0.44630  0.59490  Biso   1.000  C
  H382     1.0000 0.88420  0.45290  0.60420  Biso   1.000  H
  C403     1.0000 0.83830  0.45300  0.61890  Biso   1.000  C
  H383     1.0000 0.82600  0.45050  0.60550  Biso   1.000  H
  H384     1.0000 0.84110  0.48530  0.62810  Biso   1.000  H
  H385     1.0000 0.84210  0.42910  0.63590  Biso   1.000  H
  C404     1.0000 0.86812  0.40620  0.52250  Biso   1.000  C
  H386     1.0000 0.85950  0.38280  0.51720  Biso   1.000  H
  C405     1.0000 0.87623  0.40970  0.50300  Biso   1.000  C
  C406     1.0000 0.87086  0.38170  0.47650  Biso   1.000  C
  H387     1.0000 0.86170  0.35980  0.47030  Biso   1.000  H
  C407     1.0000 0.87902  0.38630  0.45910  Biso   1.000  C
  H388     1.0000 0.87540  0.36810  0.44030  Biso   1.000  H
  C408     1.0000 0.89233  0.41700  0.46900  Biso   1.000  C
  C409     1.0000 0.89749  0.44270  0.49620  Biso   1.000  C
  H389     1.0000 0.90710  0.46310  0.50320  Biso   1.000  H
  C410     1.0000 0.89812  0.40310  0.42480  Biso   1.000  C
  H390     1.0000 0.88670  0.41340  0.40840  Biso   1.000  H
  H391     1.0000 0.89830  0.36760  0.42610  Biso   1.000  H
  C411     1.0000 0.85639  0.41160  0.18070  Biso   1.000  C
  C412     1.0000 0.83998  0.40480  0.15840  Biso   1.000  C
  H392     1.0000 0.83200  0.39690  0.16500  Biso   1.000  H
  C413     1.0000 0.83460  0.40900  0.12660  Biso   1.000  C
  H393     1.0000 0.82310  0.40380  0.11150  Biso   1.000  H
  C414     1.0000 0.84610  0.42080  0.11660  Biso   1.000  C
  C415     1.0000 0.86250  0.42710  0.13860  Biso   1.000  C
  H394     1.0000 0.87040  0.43500  0.13170  Biso   1.000  H
  C416     1.0000 0.86839  0.42250  0.17160  Biso   1.000  C
  H395     1.0000 0.88000  0.42660  0.18680  Biso   1.000  H
  C417     1.0000 0.84130  0.42640  0.08110  Biso   1.000  C
  H396     1.0000 0.83180  0.40500  0.06810  Biso   1.000  H
  H397     1.0000 0.85110  0.41800  0.07850  Biso   1.000  H
  H398     1.0000 0.83800  0.45980  0.07440  Biso   1.000  H
  C418     1.0000 0.87530  0.39250  0.23500  Biso   1.000  C
  H399     1.0000 0.88260  0.37770  0.22870  Biso   1.000  H
  C419     1.0000 0.88052  0.39420  0.26880  Biso   1.000  C
  C420     1.0000 0.89590  0.37810  0.29110  Biso   1.000  C
  H400     1.0000 0.90350  0.36480  0.28480  Biso   1.000  H
  C421     1.0000 0.90070  0.38100  0.32320  Biso   1.000  C
  H401     1.0000 0.91120  0.36840  0.33900  Biso   1.000  H
  C422     1.0000 0.88952  0.40320  0.33130  Biso   1.000  C
  C423     1.0000 0.87421  0.42060  0.30710  Biso   1.000  C
  H402     1.0000 0.86660  0.43560  0.31250  Biso   1.000  H
  C424     1.0000 0.90875  0.39830  0.38580  Biso   1.000  C
  H403     1.0000 0.91770  0.40870  0.38100  Biso   1.000  H
  H404     1.0000 0.90920  0.36280  0.38790  Biso   1.000  H
  C425     1.0000 0.95240  0.74890  0.39700  Biso   1.000  C
  C426     1.0000 0.95350  0.77820  0.42060  Biso   1.000  C
  H405     1.0000 0.95120  0.76560  0.43640  Biso   1.000  H
  C427     1.0000 0.95780  0.82530  0.42170  Biso   1.000  C
  H406     1.0000 0.95770  0.84570  0.43730  Biso   1.000  H
  C428     1.0000 0.96240  0.84370  0.40080  Biso   1.000  C
  C429     1.0000 0.96150  0.81550  0.37780  Biso   1.000  C
  H407     1.0000 0.96500  0.82760  0.36340  Biso   1.000  H
  C430     1.0000 0.95560  0.76810  0.37460  Biso   1.000  C
  H408     1.0000 0.95390  0.74940  0.35680  Biso   1.000  H
  C431     1.0000 0.96860  0.89660  0.40510  Biso   1.000  C
  H409     1.0000 0.96560  0.91040  0.38440  Biso   1.000  H
  H410     1.0000 0.98090  0.89750  0.41860  Biso   1.000  H
  H411     1.0000 0.96320  0.91530  0.41490  Biso   1.000  H
  C432     1.0000 0.93600  0.68750  0.40130  Biso   1.000  C
  H412     1.0000 0.92960  0.71190  0.40450  Biso   1.000  H
  C433     1.0000 0.93200  0.63610  0.40280  Biso   1.000  C
  C434     1.0000 0.91950  0.62480  0.40980  Biso   1.000  C
  H413     1.0000 0.91360  0.64950  0.41390  Biso   1.000  H
  C435     1.0000 0.91538  0.57630  0.41070  Biso   1.000  C
  H414     1.0000 0.90610  0.56760  0.41370  Biso   1.000  H
  C436     1.0000 0.92511  0.54220  0.40720  Biso   1.000  C
  C437     1.0000 0.93862  0.55780  0.40250  Biso   1.000  C
  H415     1.0000 0.94520  0.53410  0.39940  Biso   1.000  H
  C438     1.0000 0.91016  0.47630  0.41390  Biso   1.000  C
  H416     1.0000 0.89890  0.48560  0.39630  Biso   1.000  H
  H417     1.0000 0.91150  0.49040  0.43370  Biso   1.000  H
  C439     1.0000 0.91165  0.42130  0.41670  Biso   1.000  C
  C440     1.0000 0.92979  0.40680  0.44280  Biso   1.000  C
  H418     1.0000 0.93020  0.37200  0.44630  Biso   1.000  H
  H419     1.0000 0.93250  0.42360  0.46260  Biso   1.000  H
  H420     1.0000 0.93800  0.41570  0.43600  Biso   1.000  H
  O31      1.0000 0.81176  0.59560  0.14240  Biso   1.000  O
  O32      1.0000 0.78521  0.71990  0.12880  Biso   1.000  O
  O33      1.0000 0.82564  0.73430  0.14330  Biso   1.000  O
  N61      1.0000 0.82250  0.40140  0.21590  Biso   1.000  N
  N62      1.0000 0.82360  0.48800  0.18790  Biso   1.000  N
  N63      1.0000 0.73544  0.85920  0.14260  Biso   1.000  N
  N64      1.0000 0.75842  0.79200  0.14590  Biso   1.000  N
  N65      1.0000 0.88533  0.87040  0.22890  Biso   1.000  N
  N66      1.0000 0.85951  0.81720  0.18170  Biso   1.000  N
  C441     1.0000 0.82280  0.35260  0.22440  Biso   1.000  C
  C442     1.0000 0.83580  0.33530  0.25260  Biso   1.000  C
  H421     1.0000 0.84390  0.35710  0.26720  Biso   1.000  H
  C443     1.0000 0.83710  0.28640  0.25990  Biso   1.000  C
  H422     1.0000 0.84620  0.27500  0.27920  Biso   1.000  H
  C444     1.0000 0.82530  0.25470  0.23910  Biso   1.000  C
  C445     1.0000 0.81160  0.27250  0.21230  Biso   1.000  C
  H423     1.0000 0.80320  0.25100  0.19800  Biso   1.000  H
  C446     1.0000 0.80990  0.32270  0.20570  Biso   1.000  C
  H424     1.0000 0.79990  0.33520  0.18850  Biso   1.000  H
  C447     1.0000 0.82550  0.20180  0.24680  Biso   1.000  C
  H425     1.0000 0.82770  0.18270  0.23210  Biso   1.000  H
  H426     1.0000 0.81460  0.19270  0.24480  Biso   1.000  H
  H427     1.0000 0.83450  0.19590  0.26860  Biso   1.000  H
  C448     1.0000 0.80910  0.42290  0.19610  Biso   1.000  C
  H428     1.0000 0.79860  0.40740  0.18990  Biso   1.000  H
  C449     1.0000 0.80873  0.46940  0.18220  Biso   1.000  C
  C450     1.0000 0.79400  0.49510  0.16630  Biso   1.000  C
  H429     1.0000 0.78360  0.48290  0.16400  Biso   1.000  H
  C451     1.0000 0.79460  0.53880  0.15390  Biso   1.000  C
  H430     1.0000 0.78470  0.55810  0.14360  Biso   1.000  H
  C452     1.0000 0.80941  0.55460  0.15620  Biso   1.000  C
  C453     1.0000 0.82369  0.53030  0.17500  Biso   1.000  C
  H431     1.0000 0.83420  0.54380  0.17930  Biso   1.000  H
  C454     1.0000 0.79756  0.62700  0.12580  Biso   1.000  C
  H432     1.0000 0.79220  0.63410  0.13890  Biso   1.000  H
  H433     1.0000 0.78910  0.61180  0.10580  Biso   1.000  H
  C455     1.0000 0.72316  0.89480  0.14120  Biso   1.000  C
  C456     1.0000 0.71270  0.88350  0.15300  Biso   1.000  C
  H434     1.0000 0.71380  0.85310  0.16270  Biso   1.000  H
  C457     1.0000 0.70060  0.91540  0.15120  Biso   1.000  C
  H435     1.0000 0.69300  0.90620  0.15840  Biso   1.000  H
  C458     1.0000 0.69970  0.96110  0.13880  Biso   1.000  C
  C459     1.0000 0.71110  0.97330  0.12990  Biso   1.000  C
  H436     1.0000 0.71130  0.00560  0.12360  Biso   1.000  H
  C460     1.0000 0.72310  0.94010  0.12950  Biso   1.000  C
  H437     1.0000 0.73060  0.94870  0.12170  Biso   1.000  H
  C461     1.0000 0.68700  0.99930  0.13750  Biso   1.000  C
  H438     1.0000 0.67570  0.99210  0.11990  Biso   1.000  H
  H439     1.0000 0.69060  0.03120  0.13450  Biso   1.000  H
  H440     1.0000 0.68660  0.99880  0.15740  Biso   1.000  H
  C462     1.0000 0.73763  0.85410  0.11850  Biso   1.000  C
  H441     1.0000 0.73130  0.87330  0.10020  Biso   1.000  H
  C463     1.0000 0.74984  0.81880  0.11880  Biso   1.000  C
  C464     1.0000 0.75218  0.81200  0.09330  Biso   1.000  C
  H442     1.0000 0.74580  0.83040  0.07460  Biso   1.000  H
  C465     1.0000 0.76382  0.77840  0.09390  Biso   1.000  C
  H443     1.0000 0.76560  0.77370  0.07630  Biso   1.000  H
  C466     1.0000 0.77279  0.75200  0.12200  Biso   1.000  C
  C467     1.0000 0.76965  0.76060  0.14730  Biso   1.000  C
  H444     1.0000 0.77600  0.74300  0.16640  Biso   1.000  H
  C468     1.0000 0.78992  0.71010  0.10480  Biso   1.000  C
  H445     1.0000 0.79370  0.73990  0.09900  Biso   1.000  H
  H446     1.0000 0.78020  0.69690  0.08560  Biso   1.000  H
  C469     1.0000 0.90070  0.89230  0.25200  Biso   1.000  C
  C470     1.0000 0.91550  0.86720  0.27050  Biso   1.000  C
  H447     1.0000 0.91580  0.83340  0.26820  Biso   1.000  H
  C471     1.0000 0.92990  0.89200  0.29280  Biso   1.000  C
  H448     1.0000 0.94010  0.87470  0.30520  Biso   1.000  H
  C472     1.0000 0.92950  0.94120  0.29670  Biso   1.000  C
  C473     1.0000 0.91510  0.96530  0.27860  Biso   1.000  C
  H449     1.0000 0.91460  0.99890  0.28140  Biso   1.000  H
  C474     1.0000 0.90110  0.94090  0.25550  Biso   1.000  C
  H450     1.0000 0.89130  0.95900  0.24160  Biso   1.000  H
  C475     1.0000 0.94540  0.96910  0.32080  Biso   1.000  C
  H451     1.0000 0.95130  0.95070  0.34050  Biso   1.000  H
  H452     1.0000 0.94210  0.00050  0.32510  Biso   1.000  H
  H453     1.0000 0.95310  0.97370  0.31190  Biso   1.000  H
  C476     1.0000 0.88031  0.83260  0.23600  Biso   1.000  C
  H454     1.0000 0.88600  0.82180  0.25740  Biso   1.000  H
  C477     1.0000 0.86588  0.80450  0.21250  Biso   1.000  C
  C478     1.0000 0.85930  0.76840  0.22200  Biso   1.000  C
  H455     1.0000 0.86420  0.76050  0.24380  Biso   1.000  H
  C479     1.0000 0.84550  0.74290  0.19960  Biso   1.000  C
  H456     1.0000 0.84080  0.71710  0.20570  Biso   1.000  H
  C480     1.0000 0.83887  0.75580  0.16870  Biso   1.000  C
  C481     1.0000 0.84685  0.79270  0.16080  Biso   1.000  C
  H457     1.0000 0.84270  0.79980  0.13900  Biso   1.000  H
  C482     1.0000 0.81900  0.69120  0.14970  Biso   1.000  C
  H458     1.0000 0.81510  0.69810  0.16520  Biso   1.000  H
  H459     1.0000 0.82790  0.66630  0.15880  Biso   1.000  H
  C483     1.0000 0.80432  0.67330  0.11880  Biso   1.000  C
  C484     1.0000 0.81059  0.66500  0.09450  Biso   1.000  C
  H460     1.0000 0.80120  0.65280  0.07470  Biso   1.000  H
  H461     1.0000 0.81980  0.64140  0.10300  Biso   1.000  H
  H462     1.0000 0.81470  0.69540  0.09050  Biso   1.000  H
  O34      1.0000 0.84859  0.75040  0.60050  Biso   1.000  O
  O35      1.0000 0.88569  0.65320  0.61660  Biso   1.000  O
  O36      1.0000 0.89745  0.77060  0.62180  Biso   1.000  O
  N67      1.0000 0.77373  0.77580  0.49340  Biso   1.000  N
  N68      1.0000 0.80726  0.78260  0.54070  Biso   1.000  N
  N69      1.0000 0.91576  0.46140  0.59960  Biso   1.000  N
  N70      1.0000 0.89795  0.54310  0.59660  Biso   1.000  N
  N71      1.0000 0.94167  0.86000  0.56830  Biso   1.000  N
  N72      1.0000 0.92674  0.82710  0.60320  Biso   1.000  N
  C485     1.0000 0.75668  0.77230  0.46950  Biso   1.000  C
  C486     1.0000 0.74900  0.72880  0.45640  Biso   1.000  C
  H463     1.0000 0.75510  0.69960  0.46420  Biso   1.000  H
  C487     1.0000 0.73240  0.72780  0.43210  Biso   1.000  C
  H464     1.0000 0.72690  0.69780  0.42460  Biso   1.000  H
  C488     1.0000 0.72390  0.76940  0.41870  Biso   1.000  C
  C489     1.0000 0.73140  0.81270  0.43210  Biso   1.000  C
  H465     1.0000 0.72530  0.84180  0.42380  Biso   1.000  H
  C490     1.0000 0.74799  0.81420  0.45810  Biso   1.000  C
  H466     1.0000 0.75300  0.84410  0.46740  Biso   1.000  H
  C491     1.0000 0.70640  0.76940  0.38990  Biso   1.000  C
  H467     1.0000 0.70190  0.80220  0.38580  Biso   1.000  H
  H468     1.0000 0.69900  0.74830  0.39380  Biso   1.000  H
  H469     1.0000 0.70710  0.75770  0.37150  Biso   1.000  H
  C492     1.0000 0.78079  0.74120  0.51340  Biso   1.000  C
  H470     1.0000 0.77400  0.71440  0.51240  Biso   1.000  H
  C493     1.0000 0.79848  0.74120  0.53730  Biso   1.000  C
  C494     1.0000 0.80620  0.70110  0.55540  Biso   1.000  C
  H471     1.0000 0.79970  0.67330  0.55350  Biso   1.000  H
  C495     1.0000 0.82320  0.70110  0.57630  Biso   1.000  C
  H472     1.0000 0.82880  0.67310  0.58800  Biso   1.000  H
  C496     1.0000 0.83186  0.74280  0.57950  Biso   1.000  C
  C497     1.0000 0.82370  0.78230  0.56210  Biso   1.000  C
  H473     1.0000 0.83000  0.81100  0.56520  Biso   1.000  H
  C498     1.0000 0.85924  0.70880  0.61450  Biso   1.000  C
  H474     1.0000 0.85740  0.68500  0.59790  Biso   1.000  H
  H475     1.0000 0.85650  0.69340  0.62990  Biso   1.000  H
  C499     1.0000 0.92530  0.41960  0.59960  Biso   1.000  C
  C500     1.0000 0.91740  0.38090  0.58100  Biso   1.000  C
  H476     1.0000 0.90540  0.38120  0.56840  Biso   1.000  H
  C501     1.0000 0.92620  0.34120  0.57980  Biso   1.000  C
  H477     1.0000 0.92040  0.31510  0.56620  Biso   1.000  H
  C502     1.0000 0.94370  0.33940  0.59840  Biso   1.000  C
  C503     1.0000 0.95140  0.37690  0.61760  Biso   1.000  C
  H478     1.0000 0.96340  0.37590  0.63040  Biso   1.000  H
  C504     1.0000 0.94270  0.41810  0.61980  Biso   1.000  C
  H479     1.0000 0.94850  0.44330  0.63430  Biso   1.000  H
  C505     1.0000 0.95470  0.29910  0.59560  Biso   1.000  C
  H480     1.0000 0.94740  0.27620  0.57920  Biso   1.000  H
  H481     1.0000 0.96090  0.28230  0.61600  Biso   1.000  H
  H482     1.0000 0.96280  0.31320  0.59000  Biso   1.000  H
  C506     1.0000 0.92000  0.48430  0.62560  Biso   1.000  C
  H483     1.0000 0.92890  0.47240  0.64510  Biso   1.000  H
  C507     1.0000 0.91122  0.52880  0.62510  Biso   1.000  C
  C508     1.0000 0.91530  0.55410  0.65230  Biso   1.000  C
  H484     1.0000 0.92410  0.54260  0.67190  Biso   1.000  H
  C509     1.0000 0.90689  0.59610  0.65170  Biso   1.000  C
  H485     1.0000 0.90940  0.61310  0.67060  Biso   1.000  H
  C510     1.0000 0.89452  0.61230  0.62210  Biso   1.000  C
  C511     1.0000 0.89004  0.58390  0.59530  Biso   1.000  C
  H486     1.0000 0.88110  0.59420  0.57550  Biso   1.000  H
  C512     1.0000 0.88962  0.68350  0.64380  Biso   1.000  C
  H487     1.0000 0.90150  0.69470  0.65380  Biso   1.000  H
  H488     1.0000 0.88790  0.66560  0.65980  Biso   1.000  H
  C513     1.0000 0.94850  0.87940  0.54930  Biso   1.000  C
  C514     1.0000 0.93910  0.90140  0.52070  Biso   1.000  C
  H489     1.0000 0.92720  0.90400  0.51250  Biso   1.000  H
  C515     1.0000 0.94620  0.91980  0.50340  Biso   1.000  C
  H490     1.0000 0.93940  0.93480  0.48350  Biso   1.000  H
  C516     1.0000 0.96370  0.91610  0.51580  Biso   1.000  C
  C517     1.0000 0.97320  0.89330  0.54360  Biso   1.000  C
  H491     1.0000 0.98500  0.88880  0.55140  Biso   1.000  H
  C518     1.0000 0.96550  0.87660  0.56080  Biso   1.000  C
  H492     1.0000 0.97240  0.86290  0.58120  Biso   1.000  H
  C519     1.0000 0.97140  0.93680  0.49610  Biso   1.000  C
  H493     1.0000 0.96250  0.95180  0.47680  Biso   1.000  H
  H494     1.0000 0.98000  0.96100  0.50860  Biso   1.000  H
  H495     1.0000 0.97670  0.91090  0.49030  Biso   1.000  H
  C520     1.0000 0.92650  0.84810  0.55450  Biso   1.000  C
  H496     1.0000 0.92020  0.85120  0.53210  Biso   1.000  H
  C521     1.0000 0.91776  0.82970  0.57130  Biso   1.000  C
  C522     1.0000 0.90139  0.81500  0.55480  Biso   1.000  C
  H497     1.0000 0.89530  0.81750  0.53240  Biso   1.000  H
  C523     1.0000 0.89367  0.79650  0.57110  Biso   1.000  C
  H498     1.0000 0.88210  0.78710  0.56010  Biso   1.000  H
  C524     1.0000 0.90279  0.79180  0.60300  Biso   1.000  C
  C525     1.0000 0.91983  0.80740  0.61810  Biso   1.000  C
  H499     1.0000 0.92650  0.80320  0.64030  Biso   1.000  H
  C526     1.0000 0.88012  0.75350  0.60640  Biso   1.000  C
  H500     1.0000 0.87800  0.73210  0.58850  Biso   1.000  H
  H501     1.0000 0.87220  0.78100  0.59810  Biso   1.000  H
  C527     1.0000 0.87750  0.72610  0.63110  Biso   1.000  C
  C528     1.0000 0.88090  0.75970  0.65970  Biso   1.000  C
  H502     1.0000 0.87330  0.78750  0.65200  Biso   1.000  H
  H503     1.0000 0.89270  0.77090  0.66990  Biso   1.000  H
  H504     1.0000 0.87900  0.74180  0.67510  Biso   1.000  H
  O37      1.0000 0.97878  0.62930  0.52510  Biso   1.000  O
  O38      1.0000 0.97303  0.68940  0.59660  Biso   1.000  O
  O39      1.0000 0.94670  0.59360  0.55860  Biso   1.000  O
  N73      1.0000 0.98830  0.69240  0.41110  Biso   1.000  N
  N74      1.0000 0.97914  0.65640  0.45360  Biso   1.000  N
  N75      1.0000 0.96098  0.84370  0.67630  Biso   1.000  N
  N76      1.0000 0.96659  0.78900  0.63500  Biso   1.000  N
  N77      1.0000 0.87174  0.53760  0.50940  Biso   1.000  N
  N78      1.0000 0.90637  0.54730  0.53810  Biso   1.000  N
  C529     1.0000 0.99340  0.70660  0.38890  Biso   1.000  C
  C530     1.0000 0.99810  0.75270  0.38720  Biso   1.000  C
  H505     1.0000 0.99810  0.77600  0.40160  Biso   1.000  H
  C531     1.0000 0.00290  0.76650  0.36510  Biso   1.000  C
  H506     1.0000 0.00570  0.79900  0.36390  Biso   1.000  H
  C532     1.0000 0.00350  0.73270  0.34500  Biso   1.000  C
  C533     1.0000 0.99920  0.68620  0.34780  Biso   1.000  C
  H507     1.0000 0.99850  0.66320  0.33270  Biso   1.000  H
  C534     1.0000 0.99560  0.67010  0.37240  Biso   1.000  C
  H508     1.0000 0.99480  0.63720  0.37660  Biso   1.000  H
  C535     1.0000 0.00860  0.74770  0.32050  Biso   1.000  C
  H509     1.0000 0.00130  0.73150  0.30040  Biso   1.000  H
  H510     1.0000 0.02040  0.73860  0.32790  Biso   1.000  H
  H511     1.0000 0.00740  0.78260  0.31740  Biso   1.000  H
  C536     1.0000 0.99450  0.71070  0.43910  Biso   1.000  C
  H512     1.0000 0.00200  0.73700  0.44440  Biso   1.000  H
  C537     1.0000 0.99040  0.69290  0.46280  Biso   1.000  C
  C538     1.0000 0.99840  0.70960  0.49310  Biso   1.000  C
  H513     1.0000 0.00680  0.73400  0.49900  Biso   1.000  H
  C539     1.0000 0.99450  0.69150  0.51490  Biso   1.000  C
  H514     1.0000 0.99910  0.70490  0.53560  Biso   1.000  H
  C540     1.0000 0.98364  0.65360  0.50610  Biso   1.000  C
  C541     1.0000 0.97540  0.63950  0.47530  Biso   1.000  C
  H515     1.0000 0.96660  0.61660  0.46890  Biso   1.000  H
  C542     1.0000 0.98410  0.64750  0.55670  Biso   1.000  C
  H516     1.0000 0.98150  0.68230  0.55600  Biso   1.000  H
  H517     1.0000 0.99650  0.64290  0.57040  Biso   1.000  H
  C543     1.0000 0.95640  0.87270  0.69590  Biso   1.000  C
  C544     1.0000 0.95820  0.92100  0.69590  Biso   1.000  C
  H518     1.0000 0.96230  0.93550  0.68320  Biso   1.000  H
  C545     1.0000 0.95390  0.94910  0.71450  Biso   1.000  C
  H519     1.0000 0.95540  0.98300  0.71480  Biso   1.000  H
  C546     1.0000 0.94750  0.92900  0.73290  Biso   1.000  C
  C547     1.0000 0.94660  0.88140  0.73430  Biso   1.000  C
  H520     1.0000 0.94250  0.86750  0.74730  Biso   1.000  H
  C548     1.0000 0.95170  0.85110  0.71640  Biso   1.000  C
  H521     1.0000 0.95180  0.81710  0.71860  Biso   1.000  H
  C549     1.0000 0.94240  0.96170  0.75270  Biso   1.000  C
  H522     1.0000 0.95250  0.97590  0.77030  Biso   1.000  H
  H523     1.0000 0.93640  0.94250  0.76110  Biso   1.000  H
  H524     1.0000 0.93490  0.98740  0.73920  Biso   1.000  H
  C550     1.0000 0.96790  0.80210  0.68500  Biso   1.000  C
  H525     1.0000 0.97150  0.79200  0.70610  Biso   1.000  H
  C551     1.0000 0.97050  0.76970  0.66400  Biso   1.000  C
  C552     1.0000 0.97770  0.72550  0.67340  Biso   1.000  C
  H526     1.0000 0.98170  0.71510  0.69460  Biso   1.000  H
  C553     1.0000 0.97940  0.69550  0.65160  Biso   1.000  C
  H527     1.0000 0.98440  0.66460  0.65770  Biso   1.000  H
  C554     1.0000 0.97350  0.71220  0.62130  Biso   1.000  C
  C555     1.0000 0.96730  0.75950  0.61380  Biso   1.000  C
  H528     1.0000 0.96350  0.77100  0.59290  Biso   1.000  H
  C556     1.0000 0.97800  0.63970  0.60110  Biso   1.000  C
  H529     1.0000 0.97160  0.62180  0.60950  Biso   1.000  H
  H530     1.0000 0.99020  0.63690  0.61650  Biso   1.000  H
  C557     1.0000 0.85400  0.52710  0.49430  Biso   1.000  C
  C558     1.0000 0.84568  0.50530  0.46540  Biso   1.000  C
  H531     1.0000 0.85130  0.50020  0.45340  Biso   1.000  H
  C559     1.0000 0.82936  0.49080  0.45380  Biso   1.000  C
  H532     1.0000 0.82390  0.47460  0.43400  Biso   1.000  H
  C560     1.0000 0.82051  0.49890  0.47020  Biso   1.000  C
  C561     1.0000 0.82868  0.52000  0.49880  Biso   1.000  C
  H533     1.0000 0.82300  0.52590  0.51060  Biso   1.000  H
  C562     1.0000 0.84564  0.53330  0.51130  Biso   1.000  C
  H534     1.0000 0.85150  0.54690  0.53190  Biso   1.000  H
  C563     1.0000 0.80212  0.48330  0.45590  Biso   1.000  C
  H535     1.0000 0.79930  0.46210  0.43780  Biso   1.000  H
  H536     1.0000 0.79480  0.51170  0.44880  Biso   1.000  H
  H537     1.0000 0.80050  0.46600  0.47180  Biso   1.000  H
  C564     1.0000 0.87804  0.56020  0.49580  Biso   1.000  C
  H538     1.0000 0.87070  0.57260  0.47530  Biso   1.000  H
  C565     1.0000 0.89628  0.56880  0.50970  Biso   1.000  C
  C566     1.0000 0.90266  0.60020  0.49640  Biso   1.000  C
  H539     1.0000 0.89540  0.61510  0.47670  Biso   1.000  H
  C567     1.0000 0.91990  0.61020  0.51180  Biso   1.000  C
  H540     1.0000 0.92450  0.63280  0.50330  Biso   1.000  H
  C568     1.0000 0.92990  0.58700  0.53930  Biso   1.000  C
  C569     1.0000 0.92237  0.55640  0.55170  Biso   1.000  C
  H541     1.0000 0.92950  0.54140  0.57140  Biso   1.000  H
  C570     1.0000 0.95558  0.62200  0.54590  Biso   1.000  C
  H542     1.0000 0.95180  0.65590  0.54320  Biso   1.000  H
  H543     1.0000 0.95320  0.60920  0.52510  Biso   1.000  H
  C571     1.0000 0.97437  0.61900  0.56920  Biso   1.000  C
  C572     1.0000 0.98070  0.56660  0.57610  Biso   1.000  C
  H544     1.0000 0.97860  0.55090  0.55630  Biso   1.000  H
  H545     1.0000 0.97460  0.54920  0.58510  Biso   1.000  H
  H546     1.0000 0.99280  0.56620  0.59110  Biso   1.000  H
  O40      1.0000 0.90519  0.69810  0.19130  Biso   1.000  O
  O41      1.0000 0.93080  0.61310  0.26800  Biso   1.000  O
  O42      1.0000 0.89072  0.57820  0.22180  Biso   1.000  O
  N79      1.0000 0.89872  0.92220  0.18240  Biso   1.000  N
  N80      1.0000 0.89563  0.82200  0.18080  Biso   1.000  N
  N81      1.0000 0.98234  0.56870  0.40840  Biso   1.000  N
  N82      1.0000 0.95777  0.60250  0.35050  Biso   1.000  N
  N83      1.0000 0.83743  0.50880  0.25900  Biso   1.000  N
  N84      1.0000 0.86071  0.52310  0.23900  Biso   1.000  N
  C573     1.0000 0.89980  0.97240  0.17850  Biso   1.000  C
  C574     1.0000 0.91156  0.99250  0.17160  Biso   1.000  C
  H547     1.0000 0.91950  0.97280  0.16930  Biso   1.000  H
  C575     1.0000 0.91160  0.04230  0.16820  Biso   1.000  C
  H548     1.0000 0.91940  0.05600  0.16260  Biso   1.000  H
  C576     1.0000 0.90100  0.07210  0.17240  Biso   1.000  C
  C577     1.0000 0.88930  0.05250  0.17990  Biso   1.000  C
  H549     1.0000 0.88190  0.07250  0.18340  Biso   1.000  H
  C578     1.0000 0.88870  0.00180  0.18210  Biso   1.000  C
  H550     1.0000 0.88040  0.98780  0.18620  Biso   1.000  H
  C579     1.0000 0.90090  0.12610  0.16780  Biso   1.000  C
  H551     1.0000 0.89460  0.13360  0.14510  Biso   1.000  H
  H552     1.0000 0.91260  0.13760  0.17660  Biso   1.000  H
  H553     1.0000 0.89550  0.14200  0.17870  Biso   1.000  H
  C580     1.0000 0.91153  0.89490  0.19200  Biso   1.000  C
  H554     1.0000 0.92220  0.90960  0.19920  Biso   1.000  H
  C581     1.0000 0.91097  0.84240  0.19290  Biso   1.000  C
  C582     1.0000 0.92524  0.81540  0.20520  Biso   1.000  C
  H555     1.0000 0.93590  0.83080  0.21330  Biso   1.000  H
  C583     1.0000 0.92451  0.76600  0.20620  Biso   1.000  C
  H556     1.0000 0.93440  0.74670  0.21540  Biso   1.000  H
  C584     1.0000 0.90855  0.74640  0.19290  Biso   1.000  C
  C585     1.0000 0.89475  0.77480  0.18100  Biso   1.000  C
  H557     1.0000 0.88390  0.76010  0.17240  Biso   1.000  H
  C586     1.0000 0.91896  0.66820  0.21260  Biso   1.000  C
  H558     1.0000 0.92460  0.68230  0.23410  Biso   1.000  H
  H559     1.0000 0.92740  0.66510  0.20530  Biso   1.000  H
  C587     1.0000 0.99560  0.55110  0.43870  Biso   1.000  C
  C588     1.0000 0.00830  0.58070  0.45870  Biso   1.000  C
  H560     1.0000 0.00820  0.61330  0.45290  Biso   1.000  H
  C589     1.0000 0.02130  0.56470  0.48740  Biso   1.000  C
  H561     1.0000 0.03030  0.58590  0.50030  Biso   1.000  H
  C590     1.0000 0.02140  0.51830  0.49720  Biso   1.000  C
  C591     1.0000 0.00830  0.48960  0.47860  Biso   1.000  C
  H562     1.0000 0.00760  0.45880  0.48640  Biso   1.000  H
  C592     1.0000 0.99530  0.50330  0.44760  Biso   1.000  C
  H563     1.0000 0.98700  0.48110  0.43390  Biso   1.000  H
  C593     1.0000 0.03510  0.49980  0.53000  Biso   1.000  C
  H564     1.0000 0.04480  0.48770  0.52830  Biso   1.000  H
  H565     1.0000 0.03040  0.47380  0.53700  Biso   1.000  H
  H566     1.0000 0.03880  0.52620  0.54530  Biso   1.000  H
  C594     1.0000 0.97850  0.54350  0.38360  Biso   1.000  C
  H567     1.0000 0.98400  0.51370  0.38580  Biso   1.000  H
  C595     1.0000 0.96570  0.55930  0.35220  Biso   1.000  C
  C596     1.0000 0.96250  0.53300  0.32600  Biso   1.000  C
  H568     1.0000 0.96860  0.50410  0.32850  Biso   1.000  H
  C597     1.0000 0.95050  0.54720  0.29570  Biso   1.000  C
  H569     1.0000 0.94790  0.52870  0.27730  Biso   1.000  H
  C598     1.0000 0.94250  0.59130  0.29440  Biso   1.000  C
  C599     1.0000 0.94650  0.61750  0.32190  Biso   1.000  C
  H570     1.0000 0.94080  0.64720  0.32000  Biso   1.000  H
  C600     1.0000 0.92576  0.58840  0.23830  Biso   1.000  C
  H571     1.0000 0.92180  0.55540  0.23890  Biso   1.000  H
  H572     1.0000 0.93530  0.58640  0.23390  Biso   1.000  H
  C601     1.0000 0.82302  0.50240  0.26340  Biso   1.000  C
  C602     1.0000 0.80970  0.53310  0.25120  Biso   1.000  C
  H573     1.0000 0.81030  0.56170  0.24110  Biso   1.000  H
  C603     1.0000 0.79530  0.52350  0.25330  Biso   1.000  C
  H574     1.0000 0.78590  0.54490  0.24390  Biso   1.000  H
  C604     1.0000 0.79440  0.48280  0.26900  Biso   1.000  C
  C605     1.0000 0.80720  0.45200  0.27920  Biso   1.000  C
  H575     1.0000 0.80640  0.42230  0.28820  Biso   1.000  H
  C606     1.0000 0.82170  0.46170  0.27720  Biso   1.000  C
  H576     1.0000 0.83080  0.43940  0.28570  Biso   1.000  H
  C607     1.0000 0.77870  0.47140  0.27260  Biso   1.000  C
  H577     1.0000 0.76850  0.48270  0.25380  Biso   1.000  H
  H578     1.0000 0.77980  0.48760  0.29150  Biso   1.000  H
  H579     1.0000 0.77800  0.43660  0.27480  Biso   1.000  H
  C608     1.0000 0.84330  0.55050  0.26050  Biso   1.000  C
  H580     1.0000 0.84010  0.57560  0.26990  Biso   1.000  H
  C609     1.0000 0.85490  0.56110  0.24830  Biso   1.000  C
  C610     1.0000 0.86090  0.60670  0.24940  Biso   1.000  C
  H581     1.0000 0.85690  0.63250  0.25690  Biso   1.000  H
  C611     1.0000 0.87270  0.61520  0.23970  Biso   1.000  C
  H582     1.0000 0.87650  0.64690  0.23920  Biso   1.000  H
  C612     1.0000 0.87868  0.57670  0.23080  Biso   1.000  C
  C613     1.0000 0.87236  0.53120  0.23150  Biso   1.000  C
  H583     1.0000 0.87700  0.50440  0.22620  Biso   1.000  H
  C614     1.0000 0.89725  0.62540  0.22050  Biso   1.000  C
  H584     1.0000 0.90150  0.64200  0.24110  Biso   1.000  H
  H585     1.0000 0.88820  0.64530  0.20390  Biso   1.000  H
  C615     1.0000 0.91135  0.61830  0.21280  Biso   1.000  C
  C616     1.0000 0.90600  0.59240  0.18050  Biso   1.000  C
  H586     1.0000 0.89820  0.61300  0.16310  Biso   1.000  H
  H587     1.0000 0.90040  0.56190  0.17990  Biso   1.000  H
  H588     1.0000 0.91610  0.58610  0.17840  Biso   1.000  H
  O43      1.0000 0.83251  0.99960  0.19480  Biso   1.000  O
  O44      1.0000 0.83323  0.06270  0.27240  Biso   1.000  O
  O45      1.0000 0.80199  0.95800  0.21460  Biso   1.000  O
  N85      1.0000 0.85663  0.87480  0.11760  Biso   1.000  N
  N86      1.0000 0.85210  0.93080  0.16000  Biso   1.000  N
  N87      1.0000 0.87455  0.17960  0.39710  Biso   1.000  N
  N88      1.0000 0.85378  0.11900  0.34730  Biso   1.000  N
  N89      1.0000 0.77241  0.75940  0.22560  Biso   1.000  N
  N90      1.0000 0.77950  0.85160  0.21240  Biso   1.000  N
  C617     1.0000 0.85971  0.84600  0.09660  Biso   1.000  C
  C618     1.0000 0.84699  0.82160  0.07140  Biso   1.000  C
  H589     1.0000 0.83570  0.82400  0.06760  Biso   1.000  H
  C619     1.0000 0.85058  0.79350  0.05160  Biso   1.000  C
  H590     1.0000 0.84170  0.77740  0.03410  Biso   1.000  H
  C620     1.0000 0.86675  0.78900  0.05700  Biso   1.000  C
  C621     1.0000 0.87958  0.81240  0.08250  Biso   1.000  C
  H591     1.0000 0.89090  0.80890  0.08680  Biso   1.000  H
  C622     1.0000 0.87595  0.84170  0.10270  Biso   1.000  C
  H592     1.0000 0.88480  0.85790  0.12020  Biso   1.000  H
  C623     1.0000 0.87080  0.75760  0.03600  Biso   1.000  C
  H593     1.0000 0.86580  0.72570  0.03400  Biso   1.000  H
  H594     1.0000 0.88310  0.75450  0.04530  Biso   1.000  H
  H595     1.0000 0.86620  0.77230  0.01490  Biso   1.000  H
  C624     1.0000 0.84322  0.89990  0.10790  Biso   1.000  C
  H596     1.0000 0.83510  0.89930  0.08600  Biso   1.000  H
  C625     1.0000 0.83990  0.92920  0.12910  Biso   1.000  C
  C626     1.0000 0.82472  0.95240  0.11820  Biso   1.000  C
  H597     1.0000 0.81640  0.95020  0.09650  Biso   1.000  H
  C627     1.0000 0.82160  0.97910  0.13890  Biso   1.000  C
  H598     1.0000 0.81160  0.99780  0.13170  Biso   1.000  H
  C628     1.0000 0.83349  0.97740  0.17030  Biso   1.000  C
  C629     1.0000 0.84860  0.95560  0.17960  Biso   1.000  C
  H599     1.0000 0.85710  0.95820  0.20110  Biso   1.000  H
  C630     1.0000 0.81723  0.02370  0.18840  Biso   1.000  C
  H600     1.0000 0.80730  0.00430  0.17400  Biso   1.000  H
  H601     1.0000 0.81650  0.05530  0.17840  Biso   1.000  H
  C631     1.0000 0.88504  0.21170  0.42310  Biso   1.000  C
  C632     1.0000 0.90080  0.22610  0.42940  Biso   1.000  C
  H602     1.0000 0.90580  0.21250  0.41780  Biso   1.000  H
  C633     1.0000 0.90970  0.26000  0.45240  Biso   1.000  C
  H603     1.0000 0.91980  0.27380  0.45410  Biso   1.000  H
  C634     1.0000 0.90380  0.27390  0.47310  Biso   1.000  C
  C635     1.0000 0.88850  0.25920  0.46730  Biso   1.000  C
  H604     1.0000 0.88440  0.26920  0.48110  Biso   1.000  H
  C636     1.0000 0.87810  0.22890  0.44080  Biso   1.000  C
  H605     1.0000 0.86680  0.22110  0.43570  Biso   1.000  H
  C637     1.0000 0.91480  0.30700  0.50150  Biso   1.000  C
  H606     1.0000 0.91710  0.33700  0.49380  Biso   1.000  H
  H607     1.0000 0.92540  0.29070  0.51570  Biso   1.000  H
  H608     1.0000 0.90870  0.31410  0.51310  Biso   1.000  H
  C638     1.0000 0.87610  0.17800  0.37230  Biso   1.000  C
  H609     1.0000 0.88460  0.19730  0.37160  Biso   1.000  H
  C639     1.0000 0.86540  0.14780  0.34460  Biso   1.000  C
  C640     1.0000 0.86780  0.14500  0.31890  Biso   1.000  C
  H610     1.0000 0.87710  0.16120  0.31920  Biso   1.000  H
  C641     1.0000 0.85690  0.11890  0.29220  Biso   1.000  C
  H611     1.0000 0.85750  0.12040  0.27320  Biso   1.000  H
  C642     1.0000 0.84499  0.09070  0.29470  Biso   1.000  C
  C643     1.0000 0.84366  0.09310  0.32230  Biso   1.000  C
  H612     1.0000 0.83500  0.07500  0.32320  Biso   1.000  H
  C644     1.0000 0.83346  0.05830  0.24250  Biso   1.000  C
  H613     1.0000 0.84380  0.04100  0.24580  Biso   1.000  H
  H614     1.0000 0.83330  0.09050  0.23370  Biso   1.000  H
  C645     1.0000 0.76830  0.71550  0.23600  Biso   1.000  C
  C646     1.0000 0.76930  0.71290  0.26500  Biso   1.000  C
  H615     1.0000 0.77320  0.73970  0.27890  Biso   1.000  H
  C647     1.0000 0.76470  0.67140  0.27400  Biso   1.000  C
  H616     1.0000 0.76570  0.66950  0.29450  Biso   1.000  H
  C648     1.0000 0.75860  0.63210  0.25380  Biso   1.000  C
  C649     1.0000 0.75830  0.63440  0.22590  Biso   1.000  C
  H617     1.0000 0.75490  0.60710  0.21240  Biso   1.000  H
  C650     1.0000 0.76310  0.67650  0.21650  Biso   1.000  C
  H618     1.0000 0.76260  0.67790  0.19650  Biso   1.000  H
  C651     1.0000 0.75370  0.58500  0.26480  Biso   1.000  C
  H619     1.0000 0.74320  0.58990  0.26540  Biso   1.000  H
  H620     1.0000 0.76280  0.57640  0.28610  Biso   1.000  H
  H621     1.0000 0.75220  0.55900  0.25000  Biso   1.000  H
  C652     1.0000 0.78633  0.77850  0.24390  Biso   1.000  C
  H622     1.0000 0.79410  0.76160  0.26240  Biso   1.000  H
  C653     1.0000 0.79106  0.82650  0.23770  Biso   1.000  C
  C654     1.0000 0.80680  0.84460  0.25560  Biso   1.000  C
  H623     1.0000 0.81480  0.82600  0.27290  Biso   1.000  H
  C655     1.0000 0.81160  0.88950  0.24990  Biso   1.000  C
  H624     1.0000 0.82250  0.90270  0.26330  Biso   1.000  H
  C656     1.0000 0.79970  0.91360  0.22370  Biso   1.000  C
  C657     1.0000 0.78381  0.89290  0.20610  Biso   1.000  C
  H625     1.0000 0.77560  0.91010  0.18820  Biso   1.000  H
  C658     1.0000 0.81836  0.98070  0.23470  Biso   1.000  C
  H626     1.0000 0.82760  0.96100  0.23530  Biso   1.000  H
  H627     1.0000 0.82030  0.98430  0.25660  Biso   1.000  H
  C659     1.0000 0.81778  0.03030  0.22020  Biso   1.000  C
  C660     1.0000 0.80184  0.05770  0.21480  Biso   1.000  C
  H628     1.0000 0.80240  0.09080  0.20850  Biso   1.000  H
  H629     1.0000 0.80120  0.05780  0.23450  Biso   1.000  H
  H630     1.0000 0.79180  0.04180  0.19810  Biso   1.000  H
  O46      1.0000 0.86407  0.05800  0.51510  Biso   1.000  O
  O47      1.0000 0.90067  0.98930  0.59230  Biso   1.000  O
  O48      1.0000 0.85013  0.95850  0.53830  Biso   1.000  O
  N91      1.0000 0.83557  0.18030  0.39160  Biso   1.000  N
  N92      1.0000 0.85290  0.12200  0.44390  Biso   1.000  N
  N93      1.0000 0.97389  0.92310  0.63330  Biso   1.000  N
  N94      1.0000 0.94086  0.93690  0.61800  Biso   1.000  N
  N95      1.0000 0.80387  0.78140  0.47370  Biso   1.000  N
  N96      1.0000 0.82036  0.86330  0.50670  Biso   1.000  N
  C661     1.0000 0.82868  0.21430  0.36660  Biso   1.000  C
  C662     1.0000 0.82950  0.26220  0.37290  Biso   1.000  C
  H631     1.0000 0.83460  0.27270  0.39430  Biso   1.000  H
  C663     1.0000 0.82300  0.29620  0.34890  Biso   1.000  C
  H632     1.0000 0.82340  0.32940  0.35390  Biso   1.000  H
  C664     1.0000 0.81600  0.28180  0.31760  Biso   1.000  C
  C665     1.0000 0.81500  0.23330  0.31150  Biso   1.000  C
  H633     1.0000 0.80950  0.22250  0.29020  Biso   1.000  H
  C666     1.0000 0.82200  0.19880  0.33670  Biso   1.000  C
  H634     1.0000 0.82190  0.16550  0.33220  Biso   1.000  H
  C667     1.0000 0.80900  0.31990  0.29240  Biso   1.000  C
  H635     1.0000 0.80410  0.30470  0.27150  Biso   1.000  H
  H636     1.0000 0.81800  0.34180  0.29500  Biso   1.000  H
  H637     1.0000 0.80020  0.33800  0.29420  Biso   1.000  H
  C668     1.0000 0.83340  0.18510  0.41580  Biso   1.000  C
  H638     1.0000 0.82600  0.20950  0.41540  Biso   1.000  H
  C669     1.0000 0.84174  0.15480  0.44370  Biso   1.000  C
  C670     1.0000 0.83729  0.15660  0.46690  Biso   1.000  C
  H639     1.0000 0.82940  0.17990  0.46590  Biso   1.000  H
  C671     1.0000 0.84436  0.12440  0.49210  Biso   1.000  C
  H640     1.0000 0.84120  0.12410  0.50810  Biso   1.000  H
  C672     1.0000 0.85617  0.09310  0.49250  Biso   1.000  C
  C673     1.0000 0.85990  0.09240  0.46840  Biso   1.000  C
  H641     1.0000 0.86790  0.06950  0.46920  Biso   1.000  H
  C674     1.0000 0.86095  0.05750  0.54200  Biso   1.000  C
  H642     1.0000 0.84890  0.05080  0.53480  Biso   1.000  H
  H643     1.0000 0.86390  0.08890  0.55300  Biso   1.000  H
  C675     1.0000 0.99150  0.91450  0.64300  Biso   1.000  C
  C676     1.0000 0.00020  0.88140  0.66580  Biso   1.000  C
  H644     1.0000 0.99480  0.86570  0.67580  Biso   1.000  H
  C677     1.0000 0.01670  0.86990  0.67480  Biso   1.000  C
  H645     1.0000 0.02200  0.84380  0.68890  Biso   1.000  H
  C678     1.0000 0.02550  0.89610  0.66340  Biso   1.000  C
  C679     1.0000 0.01720  0.93090  0.64210  Biso   1.000  C
  H646     1.0000 0.02340  0.94970  0.63480  Biso   1.000  H
  C680     1.0000 0.99960  0.94120  0.62980  Biso   1.000  C
  H647     1.0000 0.99390  0.96460  0.61370  Biso   1.000  H
  C681     1.0000 0.04380  0.88260  0.67200  Biso   1.000  C
  H648     1.0000 0.04520  0.88560  0.65320  Biso   1.000  H
  H649     1.0000 0.04600  0.84930  0.67970  Biso   1.000  H
  H650     1.0000 0.05170  0.90420  0.68860  Biso   1.000  H
  C682     1.0000 0.96753  0.96520  0.62550  Biso   1.000  C
  H651     1.0000 0.97440  0.99060  0.62500  Biso   1.000  H
  C683     1.0000 0.95002  0.97600  0.61730  Biso   1.000  C
  C684     1.0000 0.94303  0.02070  0.60710  Biso   1.000  C
  H652     1.0000 0.94980  0.04640  0.60670  Biso   1.000  H
  C685     1.0000 0.92607  0.02830  0.59740  Biso   1.000  C
  H653     1.0000 0.92080  0.05820  0.58880  Biso   1.000  H
  C686     1.0000 0.91704  0.98990  0.60080  Biso   1.000  C
  C687     1.0000 0.92480  0.94440  0.61030  Biso   1.000  C
  H654     1.0000 0.91830  0.91820  0.61130  Biso   1.000  H
  C688     1.0000 0.89038  0.02940  0.57390  Biso   1.000  C
  H655     1.0000 0.89170  0.03450  0.55500  Biso   1.000  H
  H656     1.0000 0.89390  0.05920  0.58680  Biso   1.000  H
  C689     1.0000 0.79630  0.73580  0.45900  Biso   1.000  C
  C690     1.0000 0.80400  0.69290  0.47150  Biso   1.000  C
  H657     1.0000 0.81480  0.69270  0.48980  Biso   1.000  H
  C691     1.0000 0.79640  0.65020  0.45810  Biso   1.000  C
  H658     1.0000 0.80200  0.62080  0.46710  Biso   1.000  H
  C692     1.0000 0.78050  0.64940  0.43150  Biso   1.000  C
  C693     1.0000 0.77300  0.69120  0.41940  Biso   1.000  C
  H659     1.0000 0.76220  0.69130  0.40080  Biso   1.000  H
  C694     1.0000 0.78050  0.73520  0.43350  Biso   1.000  C
  H660     1.0000 0.77450  0.76450  0.42530  Biso   1.000  H
  C695     1.0000 0.77190  0.60050  0.41690  Biso   1.000  C
  H661     1.0000 0.76740  0.60140  0.39390  Biso   1.000  H
  H662     1.0000 0.76270  0.59470  0.42150  Biso   1.000  H
  H663     1.0000 0.78030  0.57450  0.42600  Biso   1.000  H
  C696     1.0000 0.81934  0.78700  0.48180  Biso   1.000  C
  H664     1.0000 0.82520  0.76200  0.47790  Biso   1.000  H
  C697     1.0000 0.82833  0.83120  0.49730  Biso   1.000  C
  C698     1.0000 0.84385  0.83880  0.50230  Biso   1.000  C
  H665     1.0000 0.84900  0.81610  0.49500  Biso   1.000  H
  C699     1.0000 0.85280  0.88030  0.51840  Biso   1.000  C
  H666     1.0000 0.86430  0.88450  0.52400  Biso   1.000  H
  C700     1.0000 0.84433  0.91430  0.52560  Biso   1.000  C
  C701     1.0000 0.82786  0.90360  0.51950  Biso   1.000  C
  H667     1.0000 0.82200  0.92670  0.52500  Biso   1.000  H
  C702     1.0000 0.86737  0.96900  0.54710  Biso   1.000  C
  H668     1.0000 0.86880  0.97000  0.52800  Biso   1.000  H
  H669     1.0000 0.87490  0.94370  0.56140  Biso   1.000  H
  C703     1.0000 0.87207  0.01780  0.56390  Biso   1.000  C
  C704     1.0000 0.86950  0.01650  0.59350  Biso   1.000  C
  H670     1.0000 0.85770  0.00810  0.58690  Biso   1.000  H
  H671     1.0000 0.87200  0.04810  0.60360  Biso   1.000  H
  H672     1.0000 0.87700  0.99240  0.60850  Biso   1.000  H
  Cd17     1.0000 0.70672  0.33569  0.00227  Biso   1.000  Cd
  Cd18     1.0000 0.60745  0.99205  0.94595  Biso   1.000  Cd
  Cd19     1.0000 0.65402  0.95161  0.26639  Biso   1.000  Cd
  Cd20     1.0000 0.74745  0.31195  0.31421  Biso   1.000  Cd
  Cd21     1.0000 0.64423  0.62132  0.10242  Biso   1.000  Cd
  Cd22     1.0000 0.54602  0.36350  0.87549  Biso   1.000  Cd
  Cd23     1.0000 0.53378  0.13702  0.10051  Biso   1.000  Cd
  Cd24     1.0000 0.62556  0.37889  0.32716  Biso   1.000  Cd
  O49      1.0000 0.72514  0.43700  0.11440  Biso   1.000  O
  O50      1.0000 0.73892  0.41540  0.20860  Biso   1.000  O
  O51      1.0000 0.70174  0.50250  0.14400  Biso   1.000  O
  N97      1.0000 0.71586  0.39570  0.98040  Biso   1.000  N
  N98      1.0000 0.71932  0.39590  0.04030  Biso   1.000  N
  N99      1.0000 0.76901  0.26050  0.31580  Biso   1.000  N
  N100     1.0000 0.75343  0.33630  0.27480  Biso   1.000  N
  N101     1.0000 0.62548  0.55620  0.08750  Biso   1.000  N
  N102     1.0000 0.66040  0.54960  0.11520  Biso   1.000  N
  C705     1.0000 0.71540  0.39340  0.95080  Biso   1.000  C
  C706     1.0000 0.72950  0.40260  0.94790  Biso   1.000  C
  H673     1.0000 0.74000  0.40970  0.96610  Biso   1.000  H
  C707     1.0000 0.72840  0.40170  0.91830  Biso   1.000  C
  H674     1.0000 0.73780  0.41200  0.91620  Biso   1.000  H
  C708     1.0000 0.71410  0.38640  0.89190  Biso   1.000  C
  C709     1.0000 0.70020  0.37730  0.89500  Biso   1.000  C
  H675     1.0000 0.68990  0.36990  0.87660  Biso   1.000  H
  C710     1.0000 0.70080  0.37860  0.92490  Biso   1.000  C
  H676     1.0000 0.69130  0.36950  0.92690  Biso   1.000  H
  C711     1.0000 0.71410  0.37590  0.86100  Biso   1.000  C
  H677     1.0000 0.71630  0.34170  0.86000  Biso   1.000  H
  H678     1.0000 0.72280  0.39520  0.85990  Biso   1.000  H
  H679     1.0000 0.70300  0.38420  0.84320  Biso   1.000  H
  C712     1.0000 0.72310  0.43130  0.99860  Biso   1.000  C
  H680     1.0000 0.72720  0.45700  0.99140  Biso   1.000  H
  C713     1.0000 0.72510  0.43340  0.03050  Biso   1.000  C
  C714     1.0000 0.73190  0.47310  0.04900  Biso   1.000  C
  H681     1.0000 0.73600  0.49900  0.04170  Biso   1.000  H
  C715     1.0000 0.73270  0.47550  0.07830  Biso   1.000  C
  H682     1.0000 0.73740  0.50280  0.09160  Biso   1.000  H
  C716     1.0000 0.72670  0.43770  0.08760  Biso   1.000  C
  C717     1.0000 0.72010  0.39900  0.06860  Biso   1.000  C
  H683     1.0000 0.71600  0.37300  0.07560  Biso   1.000  H
  C718     1.0000 0.73110  0.47880  0.13460  Biso   1.000  C
  H684     1.0000 0.72410  0.50720  0.12350  Biso   1.000  H
  H685     1.0000 0.74300  0.48560  0.14080  Biso   1.000  H
  C719     1.0000 0.77737  0.22250  0.33810  Biso   1.000  C
  C720     1.0000 0.78166  0.22950  0.36900  Biso   1.000  C
  H686     1.0000 0.78000  0.26040  0.37540  Biso   1.000  H
  C721     1.0000 0.78830  0.19400  0.39110  Biso   1.000  C
  H687     1.0000 0.79110  0.20020  0.41240  Biso   1.000  H
  C722     1.0000 0.79090  0.14850  0.38220  Biso   1.000  C
  C723     1.0000 0.78740  0.14130  0.35210  Biso   1.000  C
  H688     1.0000 0.78990  0.11090  0.34630  Biso   1.000  H
  C724     1.0000 0.78010  0.17820  0.32870  Biso   1.000  C
  H689     1.0000 0.77720  0.17230  0.30720  Biso   1.000  H
  C725     1.0000 0.79830  0.10680  0.40590  Biso   1.000  C
  H690     1.0000 0.80020  0.11730  0.42670  Biso   1.000  H
  H691     1.0000 0.79040  0.07970  0.39850  Biso   1.000  H
  H692     1.0000 0.80910  0.09660  0.40750  Biso   1.000  H
  C726     1.0000 0.77048  0.26430  0.29090  Biso   1.000  C
  H693     1.0000 0.77720  0.24150  0.28740  Biso   1.000  H
  C727     1.0000 0.76214  0.30290  0.26760  Biso   1.000  C
  C728     1.0000 0.76412  0.30690  0.24180  Biso   1.000  C
  H694     1.0000 0.77120  0.28460  0.23890  Biso   1.000  H
  C729     1.0000 0.75610  0.34280  0.21920  Biso   1.000  C
  H695     1.0000 0.75680  0.34410  0.20020  Biso   1.000  H
  C730     1.0000 0.74710  0.37660  0.22620  Biso   1.000  C
  C731     1.0000 0.74622  0.37220  0.25430  Biso   1.000  C
  H696     1.0000 0.74020  0.39600  0.25900  Biso   1.000  H
  C732     1.0000 0.73980  0.42150  0.17980  Biso   1.000  C
  H697     1.0000 0.73500  0.39310  0.16590  Biso   1.000  H
  H698     1.0000 0.75170  0.42570  0.18460  Biso   1.000  H
  C733     1.0000 0.60738  0.55890  0.07430  Biso   1.000  C
  C734     1.0000 0.59810  0.53080  0.08330  Biso   1.000  C
  H699     1.0000 0.60360  0.50680  0.09900  Biso   1.000  H
  C735     1.0000 0.58090  0.53660  0.07010  Biso   1.000  C
  H700     1.0000 0.57460  0.51590  0.07610  Biso   1.000  H
  C736     1.0000 0.57280  0.57220  0.04810  Biso   1.000  C
  C737     1.0000 0.58160  0.60100  0.03940  Biso   1.000  C
  H701     1.0000 0.57610  0.62550  0.02410  Biso   1.000  H
  C738     1.0000 0.59900  0.59460  0.05310  Biso   1.000  C
  H702     1.0000 0.60530  0.61600  0.04740  Biso   1.000  H
  C739     1.0000 0.55360  0.57840  0.03290  Biso   1.000  C
  H703     1.0000 0.55100  0.60170  0.04520  Biso   1.000  H
  H704     1.0000 0.54840  0.54740  0.03270  Biso   1.000  H
  H705     1.0000 0.54910  0.59010  0.01120  Biso   1.000  H
  C740     1.0000 0.63263  0.51580  0.09500  Biso   1.000  C
  H706     1.0000 0.62570  0.48800  0.09060  Biso   1.000  H
  C741     1.0000 0.65094  0.50940  0.11010  Biso   1.000  C
  C742     1.0000 0.65828  0.46470  0.11650  Biso   1.000  C
  H707     1.0000 0.65140  0.43690  0.11270  Biso   1.000  H
  C743     1.0000 0.67569  0.45960  0.12860  Biso   1.000  C
  H708     1.0000 0.68090  0.42880  0.13330  Biso   1.000  H
  C744     1.0000 0.68488  0.50020  0.13350  Biso   1.000  C
  C745     1.0000 0.67648  0.54450  0.12680  Biso   1.000  C
  H709     1.0000 0.68310  0.57280  0.13120  Biso   1.000  H
  C746     1.0000 0.71104  0.45750  0.15410  Biso   1.000  C
  H710     1.0000 0.70620  0.43380  0.13660  Biso   1.000  H
  H711     1.0000 0.71020  0.44410  0.17230  Biso   1.000  H
  C747     1.0000 0.72936  0.46690  0.16360  Biso   1.000  C
  C748     1.0000 0.73680  0.50940  0.18760  Biso   1.000  C
  H712     1.0000 0.73700  0.50070  0.20740  Biso   1.000  H
  H713     1.0000 0.72980  0.53800  0.17850  Biso   1.000  H
  H714     1.0000 0.74840  0.51600  0.19180  Biso   1.000  H
  O52      1.0000 0.59774  0.92390  0.04500  Biso   1.000  O
  O53      1.0000 0.60768  0.91280  0.13950  Biso   1.000  O
  O54      1.0000 0.57651  0.99350  0.09220  Biso   1.000  O
  N103     1.0000 0.62780  0.93370  0.95330  Biso   1.000  N
  N104     1.0000 0.61048  0.94020  0.98680  Biso   1.000  N
  N105     1.0000 0.63869  0.91010  0.28650  Biso   1.000  N
  N106     1.0000 0.63009  0.91710  0.22340  Biso   1.000  N
  N107     1.0000 0.55225  0.19910  0.10420  Biso   1.000  N
  N108     1.0000 0.55744  0.10250  0.09760  Biso   1.000  N
  C749     1.0000 0.63669  0.93440  0.93620  Biso   1.000  C
  C750     1.0000 0.65381  0.92800  0.94990  Biso   1.000  C
  H715     1.0000 0.66020  0.92160  0.97190  Biso   1.000  H
  C751     1.0000 0.66200  0.93080  0.93190  Biso   1.000  C
  H716     1.0000 0.67370  0.92350  0.94130  Biso   1.000  H
  C752     1.0000 0.65320  0.94400  0.90080  Biso   1.000  C
  C753     1.0000 0.63600  0.94890  0.88660  Biso   1.000  C
  H717     1.0000 0.62950  0.95400  0.86440  Biso   1.000  H
  C754     1.0000 0.62760  0.94630  0.90510  Biso   1.000  C
  H718     1.0000 0.61580  0.95290  0.89580  Biso   1.000  H
  C755     1.0000 0.66170  0.95300  0.88110  Biso   1.000  C
  H719     1.0000 0.67400  0.95050  0.89450  Biso   1.000  H
  H720     1.0000 0.65890  0.98530  0.87190  Biso   1.000  H
  H721     1.0000 0.65790  0.92910  0.86410  Biso   1.000  H
  C756     1.0000 0.63188  0.90620  0.97750  Biso   1.000  C
  H722     1.0000 0.64050  0.88280  0.98280  Biso   1.000  H
  C757     1.0000 0.62377  0.90970  0.99700  Biso   1.000  C
  C758     1.0000 0.62914  0.88170  0.02350  Biso   1.000  C
  H723     1.0000 0.63830  0.85980  0.02970  Biso   1.000  H
  C759     1.0000 0.62098  0.88630  0.04090  Biso   1.000  C
  H724     1.0000 0.62460  0.86810  0.05970  Biso   1.000  H
  C760     1.0000 0.60767  0.91700  0.03100  Biso   1.000  C
  C761     1.0000 0.60251  0.94270  0.00380  Biso   1.000  C
  H725     1.0000 0.59290  0.96310  0.99680  Biso   1.000  H
  C762     1.0000 0.60188  0.90310  0.07520  Biso   1.000  C
  H726     1.0000 0.61330  0.91340  0.09160  Biso   1.000  H
  H727     1.0000 0.60170  0.86760  0.07390  Biso   1.000  H
  C763     1.0000 0.64361  0.91160  0.31930  Biso   1.000  C
  C764     1.0000 0.66002  0.90480  0.34160  Biso   1.000  C
  H728     1.0000 0.66800  0.89690  0.33500  Biso   1.000  H
  C765     1.0000 0.66540  0.90900  0.37340  Biso   1.000  C
  H729     1.0000 0.67690  0.90380  0.38850  Biso   1.000  H
  C766     1.0000 0.65390  0.92080  0.38340  Biso   1.000  C
  C767     1.0000 0.63750  0.92710  0.36140  Biso   1.000  C
  H730     1.0000 0.62960  0.93500  0.36830  Biso   1.000  H
  C768     1.0000 0.63161  0.92250  0.32840  Biso   1.000  C
  H731     1.0000 0.62000  0.92660  0.31320  Biso   1.000  H
  C769     1.0000 0.65870  0.92640  0.41890  Biso   1.000  C
  H732     1.0000 0.66820  0.90500  0.43190  Biso   1.000  H
  H733     1.0000 0.64890  0.91800  0.42150  Biso   1.000  H
  H734     1.0000 0.66200  0.95980  0.42560  Biso   1.000  H
  C770     1.0000 0.62470  0.89250  0.26500  Biso   1.000  C
  H735     1.0000 0.61740  0.87770  0.27130  Biso   1.000  H
  C771     1.0000 0.61948  0.89420  0.23120  Biso   1.000  C
  C772     1.0000 0.60410  0.87810  0.20890  Biso   1.000  C
  H736     1.0000 0.59650  0.86480  0.21520  Biso   1.000  H
  C773     1.0000 0.59930  0.88100  0.17680  Biso   1.000  C
  H737     1.0000 0.58880  0.86840  0.16100  Biso   1.000  H
  C774     1.0000 0.61048  0.90320  0.16870  Biso   1.000  C
  C775     1.0000 0.62579  0.92060  0.19290  Biso   1.000  C
  H738     1.0000 0.63340  0.93560  0.18750  Biso   1.000  H
  C776     1.0000 0.59125  0.89830  0.11420  Biso   1.000  C
  H739     1.0000 0.58230  0.90870  0.11900  Biso   1.000  H
  H740     1.0000 0.59080  0.86280  0.11210  Biso   1.000  H
  C777     1.0000 0.54760  0.24890  0.10300  Biso   1.000  C
  C778     1.0000 0.54650  0.27820  0.07940  Biso   1.000  C
  H741     1.0000 0.54880  0.26560  0.06360  Biso   1.000  H
  C779     1.0000 0.54220  0.32530  0.07830  Biso   1.000  C
  H742     1.0000 0.54230  0.34570  0.06270  Biso   1.000  H
  C780     1.0000 0.53760  0.34370  0.09920  Biso   1.000  C
  C781     1.0000 0.53850  0.31550  0.12220  Biso   1.000  C
  H743     1.0000 0.53500  0.32760  0.13660  Biso   1.000  H
  C782     1.0000 0.54440  0.26810  0.12540  Biso   1.000  C
  H744     1.0000 0.54610  0.24940  0.14320  Biso   1.000  H
  C783     1.0000 0.53140  0.39660  0.09490  Biso   1.000  C
  H745     1.0000 0.53440  0.41040  0.11560  Biso   1.000  H
  H746     1.0000 0.51910  0.39750  0.08140  Biso   1.000  H
  H747     1.0000 0.53680  0.41530  0.08510  Biso   1.000  H
  C784     1.0000 0.56400  0.18750  0.09870  Biso   1.000  C
  H748     1.0000 0.57040  0.21190  0.09550  Biso   1.000  H
  C785     1.0000 0.56800  0.13610  0.09720  Biso   1.000  C
  C786     1.0000 0.58050  0.12480  0.09020  Biso   1.000  C
  H749     1.0000 0.58640  0.14950  0.08610  Biso   1.000  H
  C787     1.0000 0.58462  0.07630  0.08930  Biso   1.000  C
  H750     1.0000 0.59390  0.06760  0.08630  Biso   1.000  H
  C788     1.0000 0.57489  0.04220  0.09280  Biso   1.000  C
  C789     1.0000 0.56138  0.05780  0.09750  Biso   1.000  C
  H751     1.0000 0.55480  0.03410  0.10060  Biso   1.000  H
  C790     1.0000 0.58984  0.97630  0.08610  Biso   1.000  C
  H752     1.0000 0.60110  0.98560  0.10370  Biso   1.000  H
  H753     1.0000 0.58850  0.99040  0.06630  Biso   1.000  H
  C791     1.0000 0.58835  0.92130  0.08330  Biso   1.000  C
  C792     1.0000 0.57021  0.90680  0.05720  Biso   1.000  C
  H754     1.0000 0.56980  0.87200  0.05370  Biso   1.000  H
  H755     1.0000 0.56750  0.92360  0.03740  Biso   1.000  H
  H756     1.0000 0.56200  0.91570  0.06400  Biso   1.000  H
  O55      1.0000 0.68824  0.09560  0.35760  Biso   1.000  O
  O56      1.0000 0.71479  0.21990  0.37120  Biso   1.000  O
  O57      1.0000 0.67436  0.23430  0.35670  Biso   1.000  O
  N109     1.0000 0.67750  0.90140  0.28410  Biso   1.000  N
  N110     1.0000 0.67640  0.98800  0.31210  Biso   1.000  N
  N111     1.0000 0.76456  0.35920  0.35740  Biso   1.000  N
  N112     1.0000 0.74158  0.29200  0.35410  Biso   1.000  N
  N113     1.0000 0.61467  0.37040  0.27110  Biso   1.000  N
  N114     1.0000 0.64049  0.31720  0.31830  Biso   1.000  N
  C793     1.0000 0.67720  0.85260  0.27560  Biso   1.000  C
  C794     1.0000 0.66420  0.83530  0.24740  Biso   1.000  C
  H757     1.0000 0.65610  0.85710  0.23280  Biso   1.000  H
  C795     1.0000 0.66290  0.78640  0.24010  Biso   1.000  C
  H758     1.0000 0.65380  0.77500  0.22080  Biso   1.000  H
  C796     1.0000 0.67470  0.75470  0.26090  Biso   1.000  C
  C797     1.0000 0.68840  0.77250  0.28770  Biso   1.000  C
  H759     1.0000 0.69680  0.75100  0.30200  Biso   1.000  H
  C798     1.0000 0.69010  0.82270  0.29430  Biso   1.000  C
  H760     1.0000 0.70010  0.83520  0.31150  Biso   1.000  H
  C799     1.0000 0.67450  0.70180  0.25320  Biso   1.000  C
  H761     1.0000 0.67230  0.68270  0.26790  Biso   1.000  H
  H762     1.0000 0.68540  0.69270  0.25520  Biso   1.000  H
  H763     1.0000 0.66550  0.69590  0.23140  Biso   1.000  H
  C800     1.0000 0.69090  0.92290  0.30390  Biso   1.000  C
  H764     1.0000 0.70140  0.90740  0.31010  Biso   1.000  H
  C801     1.0000 0.69127  0.96940  0.31780  Biso   1.000  C
  C802     1.0000 0.70600  0.99510  0.33370  Biso   1.000  C
  H765     1.0000 0.71640  0.98290  0.33600  Biso   1.000  H
  C803     1.0000 0.70540  0.03880  0.34610  Biso   1.000  C
  H766     1.0000 0.71530  0.05810  0.35640  Biso   1.000  H
  C804     1.0000 0.69059  0.05460  0.34380  Biso   1.000  C
  C805     1.0000 0.67631  0.03030  0.32500  Biso   1.000  C
  H767     1.0000 0.66580  0.04380  0.32070  Biso   1.000  H
  C806     1.0000 0.70244  0.12700  0.37420  Biso   1.000  C
  H768     1.0000 0.70780  0.13410  0.36110  Biso   1.000  H
  H769     1.0000 0.71090  0.11180  0.39420  Biso   1.000  H
  C807     1.0000 0.77684  0.39480  0.35880  Biso   1.000  C
  C808     1.0000 0.78730  0.38350  0.34700  Biso   1.000  C
  H770     1.0000 0.78620  0.35310  0.33730  Biso   1.000  H
  C809     1.0000 0.79940  0.41540  0.34880  Biso   1.000  C
  H771     1.0000 0.80700  0.40620  0.34160  Biso   1.000  H
  C810     1.0000 0.80030  0.46110  0.36120  Biso   1.000  C
  C811     1.0000 0.78890  0.47330  0.37010  Biso   1.000  C
  H772     1.0000 0.78870  0.50560  0.37640  Biso   1.000  H
  C812     1.0000 0.77690  0.44010  0.37050  Biso   1.000  C
  H773     1.0000 0.76940  0.44870  0.37830  Biso   1.000  H
  C813     1.0000 0.81300  0.49930  0.36250  Biso   1.000  C
  H774     1.0000 0.82430  0.49210  0.38010  Biso   1.000  H
  H775     1.0000 0.80940  0.53120  0.36550  Biso   1.000  H
  H776     1.0000 0.81340  0.49880  0.34260  Biso   1.000  H
  C814     1.0000 0.76237  0.35410  0.38150  Biso   1.000  C
  H777     1.0000 0.76870  0.37330  0.39980  Biso   1.000  H
  C815     1.0000 0.75016  0.31880  0.38120  Biso   1.000  C
  C816     1.0000 0.74782  0.31200  0.40670  Biso   1.000  C
  H778     1.0000 0.75420  0.33040  0.42540  Biso   1.000  H
  C817     1.0000 0.73618  0.27840  0.40610  Biso   1.000  C
  H779     1.0000 0.73440  0.27370  0.42370  Biso   1.000  H
  C818     1.0000 0.72721  0.25200  0.37800  Biso   1.000  C
  C819     1.0000 0.73035  0.26060  0.35270  Biso   1.000  C
  H780     1.0000 0.72400  0.24300  0.33360  Biso   1.000  H
  C820     1.0000 0.71008  0.21010  0.39520  Biso   1.000  C
  H781     1.0000 0.70630  0.23990  0.40100  Biso   1.000  H
  H782     1.0000 0.71980  0.19690  0.41440  Biso   1.000  H
  C821     1.0000 0.59930  0.39230  0.24800  Biso   1.000  C
  C822     1.0000 0.58450  0.36720  0.22950  Biso   1.000  C
  H783     1.0000 0.58420  0.33340  0.23180  Biso   1.000  H
  C823     1.0000 0.57010  0.39200  0.20720  Biso   1.000  C
  H784     1.0000 0.55990  0.37470  0.19480  Biso   1.000  H
  C824     1.0000 0.57050  0.44120  0.20330  Biso   1.000  C
  C825     1.0000 0.58490  0.46530  0.22140  Biso   1.000  C
  H785     1.0000 0.58540  0.49890  0.21860  Biso   1.000  H
  C826     1.0000 0.59890  0.44090  0.24450  Biso   1.000  C
  H786     1.0000 0.60870  0.45900  0.25840  Biso   1.000  H
  C827     1.0000 0.55460  0.46910  0.17920  Biso   1.000  C
  H787     1.0000 0.54870  0.45070  0.15950  Biso   1.000  H
  H788     1.0000 0.55790  0.50050  0.17490  Biso   1.000  H
  H789     1.0000 0.54690  0.47370  0.18810  Biso   1.000  H
  C828     1.0000 0.61969  0.33260  0.26400  Biso   1.000  C
  H790     1.0000 0.61400  0.32180  0.24260  Biso   1.000  H
  C829     1.0000 0.63412  0.30450  0.28750  Biso   1.000  C
  C830     1.0000 0.64070  0.26840  0.27800  Biso   1.000  C
  H791     1.0000 0.63580  0.26050  0.25620  Biso   1.000  H
  C831     1.0000 0.65450  0.24290  0.30040  Biso   1.000  C
  H792     1.0000 0.65920  0.21710  0.29430  Biso   1.000  H
  C832     1.0000 0.66113  0.25580  0.33130  Biso   1.000  C
  C833     1.0000 0.65315  0.29270  0.33920  Biso   1.000  C
  H793     1.0000 0.65730  0.29980  0.36100  Biso   1.000  H
  C834     1.0000 0.68100  0.19120  0.35030  Biso   1.000  C
  H794     1.0000 0.68490  0.19810  0.33480  Biso   1.000  H
  H795     1.0000 0.67210  0.16630  0.34120  Biso   1.000  H
  C835     1.0000 0.69568  0.17330  0.38120  Biso   1.000  C
  C836     1.0000 0.68941  0.16500  0.40550  Biso   1.000  C
  H796     1.0000 0.69880  0.15280  0.42530  Biso   1.000  H
  H797     1.0000 0.68020  0.14140  0.39700  Biso   1.000  H
  H798     1.0000 0.68530  0.19540  0.40950  Biso   1.000  H
  O58      1.0000 0.65141  0.25040  0.89950  Biso   1.000  O
  O59      1.0000 0.61431  0.15320  0.88340  Biso   1.000  O
  O60      1.0000 0.60255  0.27060  0.87820  Biso   1.000  O
  N115     1.0000 0.72627  0.27580  0.00660  Biso   1.000  N
  N116     1.0000 0.69274  0.28260  0.95930  Biso   1.000  N
  N117     1.0000 0.58424  0.96140  0.90040  Biso   1.000  N
  N118     1.0000 0.60205  0.04310  0.90340  Biso   1.000  N
  N119     1.0000 0.55833  0.36000  0.93170  Biso   1.000  N
  N120     1.0000 0.57326  0.32710  0.89680  Biso   1.000  N
  C837     1.0000 0.74332  0.27230  0.03050  Biso   1.000  C
  C838     1.0000 0.75100  0.22880  0.04360  Biso   1.000  C
  H799     1.0000 0.74490  0.19960  0.03580  Biso   1.000  H
  C839     1.0000 0.76760  0.22780  0.06790  Biso   1.000  C
  H800     1.0000 0.77310  0.19780  0.07540  Biso   1.000  H
  C840     1.0000 0.77610  0.26940  0.08130  Biso   1.000  C
  C841     1.0000 0.76860  0.31270  0.06790  Biso   1.000  C
  H801     1.0000 0.77470  0.34180  0.07620  Biso   1.000  H
  C842     1.0000 0.75201  0.31420  0.04190  Biso   1.000  C
  H802     1.0000 0.74700  0.34410  0.03260  Biso   1.000  H
  C843     1.0000 0.79360  0.26940  0.11010  Biso   1.000  C
  H803     1.0000 0.79810  0.30220  0.11420  Biso   1.000  H
  H804     1.0000 0.80100  0.24830  0.10620  Biso   1.000  H
  H805     1.0000 0.79290  0.25770  0.12850  Biso   1.000  H
  C844     1.0000 0.71921  0.24120  0.98660  Biso   1.000  C
  H806     1.0000 0.72600  0.21440  0.98760  Biso   1.000  H
  C845     1.0000 0.70152  0.24120  0.96270  Biso   1.000  C
  C846     1.0000 0.69380  0.20110  0.94460  Biso   1.000  C
  H807     1.0000 0.70030  0.17330  0.94650  Biso   1.000  H
  C847     1.0000 0.67680  0.20110  0.92370  Biso   1.000  C
  H808     1.0000 0.67120  0.17310  0.91200  Biso   1.000  H
  C848     1.0000 0.66814  0.24280  0.92050  Biso   1.000  C
  C849     1.0000 0.67630  0.28230  0.93790  Biso   1.000  C
  H809     1.0000 0.67000  0.31100  0.93480  Biso   1.000  H
  C850     1.0000 0.64076  0.20880  0.88550  Biso   1.000  C
  H810     1.0000 0.64260  0.18500  0.90210  Biso   1.000  H
  H811     1.0000 0.64350  0.19340  0.87010  Biso   1.000  H
  C851     1.0000 0.57470  0.91960  0.90040  Biso   1.000  C
  C852     1.0000 0.58260  0.88090  0.91900  Biso   1.000  C
  H812     1.0000 0.59460  0.88120  0.93160  Biso   1.000  H
  C853     1.0000 0.57380  0.84120  0.92020  Biso   1.000  C
  H813     1.0000 0.57960  0.81510  0.93380  Biso   1.000  H
  C854     1.0000 0.55630  0.83940  0.90160  Biso   1.000  C
  C855     1.0000 0.54860  0.87690  0.88240  Biso   1.000  C
  H814     1.0000 0.53660  0.87590  0.86960  Biso   1.000  H
  C856     1.0000 0.55730  0.91810  0.88020  Biso   1.000  C
  H815     1.0000 0.55150  0.94330  0.86570  Biso   1.000  H
  C857     1.0000 0.54530  0.79910  0.90440  Biso   1.000  C
  H816     1.0000 0.55260  0.77620  0.92080  Biso   1.000  H
  H817     1.0000 0.53910  0.78230  0.88400  Biso   1.000  H
  H818     1.0000 0.53720  0.81320  0.91000  Biso   1.000  H
  C858     1.0000 0.58000  0.98430  0.87440  Biso   1.000  C
  H819     1.0000 0.57110  0.97240  0.85490  Biso   1.000  H
  C859     1.0000 0.58878  0.02880  0.87490  Biso   1.000  C
  C860     1.0000 0.58470  0.05410  0.84770  Biso   1.000  C
  H820     1.0000 0.57590  0.04260  0.82810  Biso   1.000  H
  C861     1.0000 0.59311  0.09610  0.84830  Biso   1.000  C
  H821     1.0000 0.59060  0.11310  0.82940  Biso   1.000  H
  C862     1.0000 0.60548  0.11230  0.87790  Biso   1.000  C
  C863     1.0000 0.60996  0.08390  0.90470  Biso   1.000  C
  H822     1.0000 0.61890  0.09420  0.92450  Biso   1.000  H
  C864     1.0000 0.61038  0.18350  0.85620  Biso   1.000  C
  H823     1.0000 0.59850  0.19470  0.84620  Biso   1.000  H
  H824     1.0000 0.61210  0.16560  0.84020  Biso   1.000  H
  C865     1.0000 0.55150  0.37940  0.95070  Biso   1.000  C
  C866     1.0000 0.56090  0.40140  0.97930  Biso   1.000  C
  H825     1.0000 0.57280  0.40400  0.98750  Biso   1.000  H
  C867     1.0000 0.55380  0.41980  0.99660  Biso   1.000  C
  H826     1.0000 0.56060  0.43480  0.01650  Biso   1.000  H
  C868     1.0000 0.53630  0.41610  0.98420  Biso   1.000  C
  C869     1.0000 0.52680  0.39330  0.95640  Biso   1.000  C
  H827     1.0000 0.51500  0.38880  0.94860  Biso   1.000  H
  C870     1.0000 0.53450  0.37660  0.93920  Biso   1.000  C
  H828     1.0000 0.52760  0.36290  0.91880  Biso   1.000  H
  C871     1.0000 0.52860  0.43680  0.00390  Biso   1.000  C
  H829     1.0000 0.53750  0.45180  0.02320  Biso   1.000  H
  H830     1.0000 0.52000  0.46100  0.99140  Biso   1.000  H
  H831     1.0000 0.52330  0.41090  0.00970  Biso   1.000  H
  C872     1.0000 0.57350  0.34810  0.94550  Biso   1.000  C
  H832     1.0000 0.57980  0.35120  0.96790  Biso   1.000  H
  C873     1.0000 0.58224  0.32970  0.92870  Biso   1.000  C
  C874     1.0000 0.59861  0.31500  0.94520  Biso   1.000  C
  H833     1.0000 0.60470  0.31750  0.96760  Biso   1.000  H
  C875     1.0000 0.60633  0.29650  0.92890  Biso   1.000  C
  H834     1.0000 0.61790  0.28710  0.93990  Biso   1.000  H
  C876     1.0000 0.59721  0.29180  0.89700  Biso   1.000  C
  C877     1.0000 0.58017  0.30740  0.88190  Biso   1.000  C
  H835     1.0000 0.57350  0.30320  0.85970  Biso   1.000  H
  C878     1.0000 0.61988  0.25350  0.89360  Biso   1.000  C
  H836     1.0000 0.62200  0.23210  0.91150  Biso   1.000  H
  H837     1.0000 0.62780  0.28100  0.90190  Biso   1.000  H
  C879     1.0000 0.62250  0.22610  0.86890  Biso   1.000  C
  C880     1.0000 0.61910  0.25970  0.84030  Biso   1.000  C
  H838     1.0000 0.62670  0.28750  0.84800  Biso   1.000  H
  H839     1.0000 0.60730  0.27090  0.83010  Biso   1.000  H
  H840     1.0000 0.62100  0.24180  0.82490  Biso   1.000  H
  O61      1.0000 0.52122  0.12930  0.97490  Biso   1.000  O
  O62      1.0000 0.52697  0.18940  0.90340  Biso   1.000  O
  O63      1.0000 0.55330  0.09360  0.94140  Biso   1.000  O
  N121     1.0000 0.51170  0.19240  0.08890  Biso   1.000  N
  N122     1.0000 0.52086  0.15640  0.04640  Biso   1.000  N
  N123     1.0000 0.53902  0.34370  0.82370  Biso   1.000  N
  N124     1.0000 0.53341  0.28900  0.86500  Biso   1.000  N
  N125     1.0000 0.62826  0.03760  0.99060  Biso   1.000  N
  N126     1.0000 0.59363  0.04730  0.96190  Biso   1.000  N
  C881     1.0000 0.50660  0.20660  0.11110  Biso   1.000  C
  C882     1.0000 0.50190  0.25270  0.11280  Biso   1.000  C
  H841     1.0000 0.50190  0.27600  0.09840  Biso   1.000  H
  C883     1.0000 0.49710  0.26650  0.13490  Biso   1.000  C
  H842     1.0000 0.49430  0.29900  0.13610  Biso   1.000  H
  C884     1.0000 0.49650  0.23270  0.15500  Biso   1.000  C
  C885     1.0000 0.50080  0.18620  0.15220  Biso   1.000  C
  H843     1.0000 0.50150  0.16320  0.16730  Biso   1.000  H
  C886     1.0000 0.50440  0.17010  0.12760  Biso   1.000  C
  H844     1.0000 0.50520  0.13720  0.12340  Biso   1.000  H
  C887     1.0000 0.49140  0.24770  0.17950  Biso   1.000  C
  H845     1.0000 0.49870  0.23150  0.19960  Biso   1.000  H
  H846     1.0000 0.47960  0.23860  0.17210  Biso   1.000  H
  H847     1.0000 0.49260  0.28260  0.18260  Biso   1.000  H
  C888     1.0000 0.50550  0.21070  0.06090  Biso   1.000  C
  H848     1.0000 0.49800  0.23700  0.05560  Biso   1.000  H
  C889     1.0000 0.50960  0.19290  0.03720  Biso   1.000  C
  C890     1.0000 0.50160  0.20960  0.00690  Biso   1.000  C
  H849     1.0000 0.49320  0.23400  0.00100  Biso   1.000  H
  C891     1.0000 0.50550  0.19150  0.98510  Biso   1.000  C
  H850     1.0000 0.50090  0.20490  0.96440  Biso   1.000  H
  C892     1.0000 0.51636  0.15360  0.99390  Biso   1.000  C
  C893     1.0000 0.52460  0.13950  0.02470  Biso   1.000  C
  H851     1.0000 0.53340  0.11660  0.03110  Biso   1.000  H
  C894     1.0000 0.51590  0.14750  0.94330  Biso   1.000  C
  H852     1.0000 0.51850  0.18230  0.94400  Biso   1.000  H
  H853     1.0000 0.50350  0.14290  0.92960  Biso   1.000  H
  C895     1.0000 0.54360  0.37270  0.80410  Biso   1.000  C
  C896     1.0000 0.54180  0.42100  0.80410  Biso   1.000  C
  H854     1.0000 0.53770  0.43550  0.81680  Biso   1.000  H
  C897     1.0000 0.54610  0.44910  0.78550  Biso   1.000  C
  H855     1.0000 0.54460  0.48300  0.78520  Biso   1.000  H
  C898     1.0000 0.55250  0.42900  0.76710  Biso   1.000  C
  C899     1.0000 0.55340  0.38140  0.76570  Biso   1.000  C
  H856     1.0000 0.55750  0.36750  0.75270  Biso   1.000  H
  C900     1.0000 0.54830  0.35110  0.78360  Biso   1.000  C
  H857     1.0000 0.54820  0.31710  0.78140  Biso   1.000  H
  C901     1.0000 0.55760  0.46170  0.74730  Biso   1.000  C
  H858     1.0000 0.54750  0.47590  0.72970  Biso   1.000  H
  H859     1.0000 0.56360  0.44250  0.73890  Biso   1.000  H
  H860     1.0000 0.56510  0.48740  0.76080  Biso   1.000  H
  C902     1.0000 0.53210  0.30210  0.81500  Biso   1.000  C
  H861     1.0000 0.52850  0.29200  0.79390  Biso   1.000  H
  C903     1.0000 0.52950  0.26970  0.83600  Biso   1.000  C
  C904     1.0000 0.52230  0.22550  0.82660  Biso   1.000  C
  H862     1.0000 0.51830  0.21510  0.80540  Biso   1.000  H
  C905     1.0000 0.52060  0.19550  0.84840  Biso   1.000  C
  H863     1.0000 0.51560  0.16460  0.84230  Biso   1.000  H
  C906     1.0000 0.52650  0.21220  0.87870  Biso   1.000  C
  C907     1.0000 0.53270  0.25950  0.88620  Biso   1.000  C
  H864     1.0000 0.53650  0.27100  0.90710  Biso   1.000  H
  C908     1.0000 0.52200  0.13970  0.89890  Biso   1.000  C
  H865     1.0000 0.52840  0.12180  0.89050  Biso   1.000  H
  H866     1.0000 0.50980  0.13690  0.88350  Biso   1.000  H
  C909     1.0000 0.64600  0.02710  0.00570  Biso   1.000  C
  C910     1.0000 0.65432  0.00530  0.03460  Biso   1.000  C
  H867     1.0000 0.64870  0.00020  0.04660  Biso   1.000  H
  C911     1.0000 0.67064  0.99080  0.04620  Biso   1.000  C
  H868     1.0000 0.67610  0.97460  0.06600  Biso   1.000  H
  C912     1.0000 0.67949  0.99890  0.02980  Biso   1.000  C
  C913     1.0000 0.67132  0.02000  0.00120  Biso   1.000  C
  H869     1.0000 0.67700  0.02590  0.98940  Biso   1.000  H
  C914     1.0000 0.65436  0.03330  0.98870  Biso   1.000  C
  H870     1.0000 0.64850  0.04690  0.96810  Biso   1.000  H
  C915     1.0000 0.69788  0.98330  0.04410  Biso   1.000  C
  H871     1.0000 0.70070  0.96210  0.06220  Biso   1.000  H
  H872     1.0000 0.70520  0.01170  0.05120  Biso   1.000  H
  H873     1.0000 0.69950  0.96600  0.02820  Biso   1.000  H
  C916     1.0000 0.62196  0.06020  0.00420  Biso   1.000  C
  H874     1.0000 0.62930  0.07260  0.02470  Biso   1.000  H
  C917     1.0000 0.60372  0.06880  0.99030  Biso   1.000  C
  C918     1.0000 0.59734  0.10020  0.00360  Biso   1.000  C
  H875     1.0000 0.60460  0.11510  0.02330  Biso   1.000  H
  C919     1.0000 0.58010  0.11020  0.98820  Biso   1.000  C
  H876     1.0000 0.57550  0.13280  0.99670  Biso   1.000  H
  C920     1.0000 0.57010  0.08700  0.96070  Biso   1.000  C
  C921     1.0000 0.57763  0.05640  0.94830  Biso   1.000  C
  H877     1.0000 0.57050  0.04140  0.92860  Biso   1.000  H
  C922     1.0000 0.54442  0.12200  0.95410  Biso   1.000  C
  H878     1.0000 0.54820  0.15590  0.95680  Biso   1.000  H
  H879     1.0000 0.54680  0.10920  0.97490  Biso   1.000  H
  C923     1.0000 0.52563  0.11900  0.93080  Biso   1.000  C
  C924     1.0000 0.51930  0.06660  0.92390  Biso   1.000  C
  H880     1.0000 0.52140  0.05090  0.94370  Biso   1.000  H
  H881     1.0000 0.52540  0.04920  0.91490  Biso   1.000  H
  H882     1.0000 0.50720  0.06620  0.90890  Biso   1.000  H
  O64      1.0000 0.59481  0.19810  0.30870  Biso   1.000  O
  O65      1.0000 0.56920  0.11310  0.23200  Biso   1.000  O
  O66      1.0000 0.60928  0.07820  0.27820  Biso   1.000  O
  N127     1.0000 0.60128  0.42220  0.31760  Biso   1.000  N
  N128     1.0000 0.60437  0.32200  0.31920  Biso   1.000  N
  N129     1.0000 0.51766  0.06870  0.09160  Biso   1.000  N
  N130     1.0000 0.54223  0.10250  0.14950  Biso   1.000  N
  N131     1.0000 0.66257  0.00880  0.24100  Biso   1.000  N
  N132     1.0000 0.63929  0.02310  0.26100  Biso   1.000  N
  C925     1.0000 0.60020  0.47240  0.32150  Biso   1.000  C
  C926     1.0000 0.58844  0.49250  0.32840  Biso   1.000  C
  H883     1.0000 0.58050  0.47280  0.33070  Biso   1.000  H
  C927     1.0000 0.58840  0.54230  0.33180  Biso   1.000  C
  H884     1.0000 0.58060  0.55600  0.33740  Biso   1.000  H
  C928     1.0000 0.59900  0.57210  0.32760  Biso   1.000  C
  C929     1.0000 0.61070  0.55250  0.32010  Biso   1.000  C
  H885     1.0000 0.61810  0.57250  0.31660  Biso   1.000  H
  C930     1.0000 0.61130  0.50180  0.31790  Biso   1.000  C
  H886     1.0000 0.61960  0.48780  0.31380  Biso   1.000  H
  C931     1.0000 0.59910  0.62610  0.33220  Biso   1.000  C
  H887     1.0000 0.60540  0.63360  0.35490  Biso   1.000  H
  H888     1.0000 0.58740  0.63760  0.32340  Biso   1.000  H
  H889     1.0000 0.60450  0.64200  0.32130  Biso   1.000  H
  C932     1.0000 0.58847  0.39490  0.30800  Biso   1.000  C
  H890     1.0000 0.57780  0.40960  0.30080  Biso   1.000  H
  C933     1.0000 0.58903  0.34240  0.30710  Biso   1.000  C
  C934     1.0000 0.57476  0.31540  0.29480  Biso   1.000  C
  H891     1.0000 0.56410  0.33080  0.28670  Biso   1.000  H
  C935     1.0000 0.57549  0.26600  0.29380  Biso   1.000  C
  H892     1.0000 0.56560  0.24670  0.28460  Biso   1.000  H
  C936     1.0000 0.59145  0.24640  0.30710  Biso   1.000  C
  C937     1.0000 0.60525  0.27480  0.31900  Biso   1.000  C
  H893     1.0000 0.61610  0.26010  0.32760  Biso   1.000  H
  C938     1.0000 0.58104  0.16820  0.28740  Biso   1.000  C
  H894     1.0000 0.57540  0.18230  0.26590  Biso   1.000  H
  H895     1.0000 0.57260  0.16510  0.29470  Biso   1.000  H
  C939     1.0000 0.50440  0.05110  0.06130  Biso   1.000  C
  C940     1.0000 0.49170  0.08070  0.04130  Biso   1.000  C
  H896     1.0000 0.49180  0.11330  0.04710  Biso   1.000  H
  C941     1.0000 0.47870  0.06470  0.01260  Biso   1.000  C
  H897     1.0000 0.46970  0.08590  0.99970  Biso   1.000  H
  C942     1.0000 0.47860  0.01830  0.00280  Biso   1.000  C
  C943     1.0000 0.49170  0.98960  0.02140  Biso   1.000  C
  H898     1.0000 0.49240  0.95880  0.01360  Biso   1.000  H
  C944     1.0000 0.50470  0.00330  0.05240  Biso   1.000  C
  H899     1.0000 0.51300  0.98110  0.06610  Biso   1.000  H
  C945     1.0000 0.46490  0.99980  0.97000  Biso   1.000  C
  H900     1.0000 0.45520  0.98770  0.97170  Biso   1.000  H
  H901     1.0000 0.46960  0.97380  0.96300  Biso   1.000  H
  H902     1.0000 0.46120  0.02620  0.95470  Biso   1.000  H
  C946     1.0000 0.52150  0.04350  0.11640  Biso   1.000  C
  H903     1.0000 0.51600  0.01370  0.11420  Biso   1.000  H
  C947     1.0000 0.53430  0.05930  0.14780  Biso   1.000  C
  C948     1.0000 0.53750  0.03300  0.17400  Biso   1.000  C
  H904     1.0000 0.53140  0.00410  0.17150  Biso   1.000  H
  C949     1.0000 0.54950  0.04720  0.20430  Biso   1.000  C
  H905     1.0000 0.55210  0.02870  0.22270  Biso   1.000  H
  C950     1.0000 0.55750  0.09130  0.20560  Biso   1.000  C
  C951     1.0000 0.55350  0.11750  0.17810  Biso   1.000  C
  H906     1.0000 0.55920  0.14720  0.18000  Biso   1.000  H
  C952     1.0000 0.57424  0.08840  0.26170  Biso   1.000  C
  H907     1.0000 0.57820  0.05540  0.26110  Biso   1.000  H
  H908     1.0000 0.56470  0.08640  0.26610  Biso   1.000  H
  C953     1.0000 0.67698  0.00240  0.23660  Biso   1.000  C
  C954     1.0000 0.69030  0.03310  0.24880  Biso   1.000  C
  H909     1.0000 0.68970  0.06170  0.25890  Biso   1.000  H
  C955     1.0000 0.70470  0.02350  0.24670  Biso   1.000  C
  H910     1.0000 0.71410  0.04490  0.25610  Biso   1.000  H
  C956     1.0000 0.70560  0.98280  0.23100  Biso   1.000  C
  C957     1.0000 0.69280  0.95200  0.22080  Biso   1.000  C
  H911     1.0000 0.69360  0.92230  0.21180  Biso   1.000  H
  C958     1.0000 0.67830  0.96170  0.22280  Biso   1.000  C
  H912     1.0000 0.66920  0.93940  0.21430  Biso   1.000  H
  C959     1.0000 0.72130  0.97140  0.22740  Biso   1.000  C
  H913     1.0000 0.73150  0.98270  0.24620  Biso   1.000  H
  H914     1.0000 0.72020  0.98760  0.20850  Biso   1.000  H
  H915     1.0000 0.72200  0.93660  0.22520  Biso   1.000  H
  C960     1.0000 0.65670  0.05050  0.23950  Biso   1.000  C
  H916     1.0000 0.65990  0.07560  0.23010  Biso   1.000  H
  C961     1.0000 0.64510  0.06110  0.25170  Biso   1.000  C
  C962     1.0000 0.63910  0.10670  0.25060  Biso   1.000  C
  H917     1.0000 0.64310  0.13250  0.24310  Biso   1.000  H
  C963     1.0000 0.62730  0.11520  0.26030  Biso   1.000  C
  H918     1.0000 0.62350  0.14690  0.26080  Biso   1.000  H
  C964     1.0000 0.62132  0.07670  0.26920  Biso   1.000  C
  C965     1.0000 0.62764  0.03120  0.26850  Biso   1.000  C
  H919     1.0000 0.62300  0.00440  0.27380  Biso   1.000  H
  C966     1.0000 0.60275  0.12540  0.27950  Biso   1.000  C
  H920     1.0000 0.59850  0.14200  0.25890  Biso   1.000  H
  H921     1.0000 0.61180  0.14530  0.29610  Biso   1.000  H
  C967     1.0000 0.58865  0.11830  0.28720  Biso   1.000  C
  C968     1.0000 0.59400  0.09240  0.31950  Biso   1.000  C
  H922     1.0000 0.60180  0.11300  0.33690  Biso   1.000  H
  H923     1.0000 0.59960  0.06190  0.32010  Biso   1.000  H
  H924     1.0000 0.58390  0.08610  0.32160  Biso   1.000  H
  O67      1.0000 0.66749  0.49960  0.30520  Biso   1.000  O
  O68      1.0000 0.66677  0.56270  0.22760  Biso   1.000  O
  O69      1.0000 0.69801  0.45800  0.28540  Biso   1.000  O
  N133     1.0000 0.64337  0.37480  0.38240  Biso   1.000  N
  N134     1.0000 0.64790  0.43080  0.34000  Biso   1.000  N
  N135     1.0000 0.62545  0.67960  0.10290  Biso   1.000  N
  N136     1.0000 0.64622  0.61900  0.15270  Biso   1.000  N
  N137     1.0000 0.72759  0.25940  0.27440  Biso   1.000  N
  N138     1.0000 0.72050  0.35160  0.28760  Biso   1.000  N
  C969     1.0000 0.64029  0.34600  0.40340  Biso   1.000  C
  C970     1.0000 0.65301  0.32160  0.42860  Biso   1.000  C
  H925     1.0000 0.66430  0.32400  0.43240  Biso   1.000  H
  C971     1.0000 0.64942  0.29350  0.44840  Biso   1.000  C
  H926     1.0000 0.65830  0.27740  0.46590  Biso   1.000  H
  C972     1.0000 0.63325  0.28900  0.44300  Biso   1.000  C
  C973     1.0000 0.62042  0.31240  0.41750  Biso   1.000  C
  H927     1.0000 0.60910  0.30890  0.41320  Biso   1.000  H
  C974     1.0000 0.62405  0.34170  0.39730  Biso   1.000  C
  H928     1.0000 0.61520  0.35790  0.37980  Biso   1.000  H
  C975     1.0000 0.62920  0.25760  0.46400  Biso   1.000  C
  H929     1.0000 0.63420  0.22570  0.46600  Biso   1.000  H
  H930     1.0000 0.61690  0.25450  0.45470  Biso   1.000  H
  H931     1.0000 0.63380  0.27230  0.48510  Biso   1.000  H
  C976     1.0000 0.65678  0.39990  0.39210  Biso   1.000  C
  H932     1.0000 0.66490  0.39930  0.41400  Biso   1.000  H
  C977     1.0000 0.66010  0.42920  0.37090  Biso   1.000  C
  C978     1.0000 0.67528  0.45240  0.38180  Biso   1.000  C
  H933     1.0000 0.68360  0.45020  0.40350  Biso   1.000  H
  C979     1.0000 0.67840  0.47910  0.36110  Biso   1.000  C
  H934     1.0000 0.68840  0.49780  0.36830  Biso   1.000  H
  C980     1.0000 0.66651  0.47740  0.32970  Biso   1.000  C
  C981     1.0000 0.65140  0.45560  0.32040  Biso   1.000  C
  H935     1.0000 0.64290  0.45820  0.29890  Biso   1.000  H
  C982     1.0000 0.68277  0.52370  0.31160  Biso   1.000  C
  H936     1.0000 0.69270  0.50430  0.32600  Biso   1.000  H
  H937     1.0000 0.68350  0.55530  0.32160  Biso   1.000  H
  C983     1.0000 0.61496  0.71170  0.07690  Biso   1.000  C
  C984     1.0000 0.59920  0.72610  0.07060  Biso   1.000  C
  H938     1.0000 0.59420  0.71250  0.08220  Biso   1.000  H
  C985     1.0000 0.59030  0.76000  0.04760  Biso   1.000  C
  H939     1.0000 0.58020  0.77380  0.04590  Biso   1.000  H
  C986     1.0000 0.59620  0.77390  0.02690  Biso   1.000  C
  C987     1.0000 0.61150  0.75920  0.03270  Biso   1.000  C
  H940     1.0000 0.61560  0.76920  0.01890  Biso   1.000  H
  C988     1.0000 0.62190  0.72890  0.05920  Biso   1.000  C
  H941     1.0000 0.63320  0.72110  0.06430  Biso   1.000  H
  C989     1.0000 0.58520  0.80700  0.99850  Biso   1.000  C
  H942     1.0000 0.58290  0.83700  0.00620  Biso   1.000  H
  H943     1.0000 0.57460  0.79070  0.98430  Biso   1.000  H
  H944     1.0000 0.59130  0.81410  0.98690  Biso   1.000  H
  C990     1.0000 0.62390  0.67800  0.12770  Biso   1.000  C
  H945     1.0000 0.61540  0.69730  0.12840  Biso   1.000  H
  C991     1.0000 0.63460  0.64780  0.15540  Biso   1.000  C
  C992     1.0000 0.63220  0.64500  0.18110  Biso   1.000  C
  H946     1.0000 0.62290  0.66120  0.18080  Biso   1.000  H
  C993     1.0000 0.64310  0.61890  0.20780  Biso   1.000  C
  H947     1.0000 0.64250  0.62040  0.22680  Biso   1.000  H
  C994     1.0000 0.65501  0.59070  0.20530  Biso   1.000  C
  C995     1.0000 0.65634  0.59310  0.17770  Biso   1.000  C
  H948     1.0000 0.66500  0.57500  0.17680  Biso   1.000  H
  C996     1.0000 0.66654  0.55830  0.25750  Biso   1.000  C
  H949     1.0000 0.65620  0.54100  0.25420  Biso   1.000  H
  H950     1.0000 0.66670  0.59050  0.26630  Biso   1.000  H
  C997     1.0000 0.73170  0.21550  0.26400  Biso   1.000  C
  C998     1.0000 0.73070  0.21290  0.23500  Biso   1.000  C
  H951     1.0000 0.72680  0.23970  0.22110  Biso   1.000  H
  C999     1.0000 0.73530  0.17140  0.22600  Biso   1.000  C
  H952     1.0000 0.73430  0.16950  0.20550  Biso   1.000  H
  C1000    1.0000 0.74140  0.13210  0.24620  Biso   1.000  C
  C1001    1.0000 0.74170  0.13440  0.27410  Biso   1.000  C
  H953     1.0000 0.74510  0.10710  0.28760  Biso   1.000  H
  C1002    1.0000 0.73690  0.17650  0.28350  Biso   1.000  C
  H954     1.0000 0.73740  0.17790  0.30350  Biso   1.000  H
  C1003    1.0000 0.74630  0.08500  0.23520  Biso   1.000  C
  H955     1.0000 0.75680  0.08990  0.23460  Biso   1.000  H
  H956     1.0000 0.73720  0.07640  0.21390  Biso   1.000  H
  H957     1.0000 0.74780  0.05900  0.25000  Biso   1.000  H
  C1004    1.0000 0.71367  0.27850  0.25610  Biso   1.000  C
  H958     1.0000 0.70590  0.26160  0.23760  Biso   1.000  H
  C1005    1.0000 0.70894  0.32650  0.26230  Biso   1.000  C
  C1006    1.0000 0.69320  0.34460  0.24440  Biso   1.000  C
  H959     1.0000 0.68520  0.32600  0.22710  Biso   1.000  H
  C1007    1.0000 0.68840  0.38950  0.25010  Biso   1.000  C
  H960     1.0000 0.67750  0.40270  0.23670  Biso   1.000  H
  C1008    1.0000 0.70030  0.41360  0.27630  Biso   1.000  C
  C1009    1.0000 0.71619  0.39290  0.29390  Biso   1.000  C
  H961     1.0000 0.72440  0.41010  0.31180  Biso   1.000  H
  C1010    1.0000 0.68164  0.48070  0.26530  Biso   1.000  C
  H962     1.0000 0.67240  0.46100  0.26470  Biso   1.000  H
  H963     1.0000 0.67970  0.48430  0.24340  Biso   1.000  H
  C1011    1.0000 0.68222  0.53030  0.27980  Biso   1.000  C
  C1012    1.0000 0.69816  0.55770  0.28520  Biso   1.000  C
  H964     1.0000 0.69760  0.59080  0.29150  Biso   1.000  H
  H965     1.0000 0.69880  0.55780  0.26550  Biso   1.000  H
  H966     1.0000 0.70820  0.54180  0.30190  Biso   1.000  H
  O70      1.0000 0.63593  0.55800  0.98490  Biso   1.000  O
  O71      1.0000 0.59933  0.48930  0.90770  Biso   1.000  O
  O72      1.0000 0.64987  0.45850  0.96170  Biso   1.000  O
  N139     1.0000 0.66443  0.68030  0.10840  Biso   1.000  N
  N140     1.0000 0.64710  0.62200  0.05610  Biso   1.000  N
  N141     1.0000 0.52611  0.42310  0.86670  Biso   1.000  N
  N142     1.0000 0.55914  0.43690  0.88200  Biso   1.000  N
  N143     1.0000 0.69613  0.28140  0.02630  Biso   1.000  N
  N144     1.0000 0.67964  0.36330  0.99330  Biso   1.000  N
  C1013    1.0000 0.67132  0.71430  0.13340  Biso   1.000  C
  C1014    1.0000 0.67050  0.76220  0.12710  Biso   1.000  C
  H967     1.0000 0.66540  0.77270  0.10570  Biso   1.000  H
  C1015    1.0000 0.67700  0.79620  0.15110  Biso   1.000  C
  H968     1.0000 0.67660  0.82940  0.14610  Biso   1.000  H
  C1016    1.0000 0.68400  0.78180  0.18240  Biso   1.000  C
  C1017    1.0000 0.68500  0.73330  0.18850  Biso   1.000  C
  H969     1.0000 0.69050  0.72250  0.20980  Biso   1.000  H
  C1018    1.0000 0.67800  0.69880  0.16330  Biso   1.000  C
  H970     1.0000 0.67810  0.66550  0.16780  Biso   1.000  H
  C1019    1.0000 0.69100  0.81990  0.20760  Biso   1.000  C
  H971     1.0000 0.69590  0.80470  0.22850  Biso   1.000  H
  H972     1.0000 0.68200  0.84180  0.20500  Biso   1.000  H
  H973     1.0000 0.69980  0.83800  0.20580  Biso   1.000  H
  C1020    1.0000 0.66660  0.68510  0.08420  Biso   1.000  C
  H974     1.0000 0.67400  0.70950  0.08460  Biso   1.000  H
  C1021    1.0000 0.65826  0.65480  0.05630  Biso   1.000  C
  C1022    1.0000 0.66271  0.65660  0.03310  Biso   1.000  C
  H975     1.0000 0.67060  0.67990  0.03410  Biso   1.000  H
  C1023    1.0000 0.65564  0.62440  0.00790  Biso   1.000  C
  H976     1.0000 0.65880  0.62410  0.99190  Biso   1.000  H
  C1024    1.0000 0.64383  0.59310  0.00750  Biso   1.000  C
  C1025    1.0000 0.64010  0.59240  0.03160  Biso   1.000  C
  H977     1.0000 0.63210  0.56950  0.03080  Biso   1.000  H
  C1026    1.0000 0.63905  0.55750  0.95800  Biso   1.000  C
  H978     1.0000 0.65110  0.55080  0.96520  Biso   1.000  H
  H979     1.0000 0.63610  0.58890  0.94700  Biso   1.000  H
  C1027    1.0000 0.50850  0.41450  0.85700  Biso   1.000  C
  C1028    1.0000 0.49980  0.38140  0.83420  Biso   1.000  C
  H980     1.0000 0.50520  0.36570  0.82420  Biso   1.000  H
  C1029    1.0000 0.48330  0.36990  0.82520  Biso   1.000  C
  H981     1.0000 0.47800  0.34380  0.81110  Biso   1.000  H
  C1030    1.0000 0.47450  0.39610  0.83660  Biso   1.000  C
  C1031    1.0000 0.48280  0.43090  0.85790  Biso   1.000  C
  H982     1.0000 0.47660  0.44970  0.86520  Biso   1.000  H
  C1032    1.0000 0.50040  0.44120  0.87020  Biso   1.000  C
  H983     1.0000 0.50610  0.46460  0.88630  Biso   1.000  H
  C1033    1.0000 0.45620  0.38260  0.82800  Biso   1.000  C
  H984     1.0000 0.45480  0.38560  0.84680  Biso   1.000  H
  H985     1.0000 0.45400  0.34930  0.82030  Biso   1.000  H
  H986     1.0000 0.44830  0.40420  0.81140  Biso   1.000  H
  C1034    1.0000 0.53247  0.46520  0.87450  Biso   1.000  C
  H987     1.0000 0.52560  0.49060  0.87500  Biso   1.000  H
  C1035    1.0000 0.54998  0.47600  0.88270  Biso   1.000  C
  C1036    1.0000 0.55697  0.52070  0.89290  Biso   1.000  C
  H988     1.0000 0.55020  0.54640  0.89330  Biso   1.000  H
  C1037    1.0000 0.57393  0.52830  0.90260  Biso   1.000  C
  H989     1.0000 0.57920  0.55820  0.91120  Biso   1.000  H
  C1038    1.0000 0.58296  0.48990  0.89920  Biso   1.000  C
  C1039    1.0000 0.57520  0.44440  0.88970  Biso   1.000  C
  H990     1.0000 0.58170  0.41820  0.88870  Biso   1.000  H
  C1040    1.0000 0.60962  0.52940  0.92610  Biso   1.000  C
  H991     1.0000 0.60830  0.53450  0.94500  Biso   1.000  H
  H992     1.0000 0.60610  0.55920  0.91320  Biso   1.000  H
  C1041    1.0000 0.70370  0.23580  0.04100  Biso   1.000  C
  C1042    1.0000 0.69600  0.19290  0.02850  Biso   1.000  C
  H993     1.0000 0.68520  0.19270  0.01020  Biso   1.000  H
  C1043    1.0000 0.70360  0.15020  0.04190  Biso   1.000  C
  H994     1.0000 0.69800  0.12080  0.03290  Biso   1.000  H
  C1044    1.0000 0.71950  0.14940  0.06850  Biso   1.000  C
  C1045    1.0000 0.72700  0.19120  0.08060  Biso   1.000  C
  H995     1.0000 0.73780  0.19130  0.09920  Biso   1.000  H
  C1046    1.0000 0.71950  0.23520  0.06650  Biso   1.000  C
  H996     1.0000 0.72550  0.26450  0.07470  Biso   1.000  H
  C1047    1.0000 0.72810  0.10050  0.08310  Biso   1.000  C
  H997     1.0000 0.73260  0.10140  0.10610  Biso   1.000  H
  H998     1.0000 0.73730  0.09470  0.07850  Biso   1.000  H
  H999     1.0000 0.71970  0.07450  0.07400  Biso   1.000  H
  C1048    1.0000 0.68066  0.28700  0.01820  Biso   1.000  C
  H1000    1.0000 0.67480  0.26200  0.02210  Biso   1.000  H
  C1049    1.0000 0.67167  0.33120  0.00270  Biso   1.000  C
  C1050    1.0000 0.65615  0.33880  0.99770  Biso   1.000  C
  H1001    1.0000 0.65100  0.31610  0.00500  Biso   1.000  H
  C1051    1.0000 0.64720  0.38030  0.98160  Biso   1.000  C
  H1002    1.0000 0.63570  0.38450  0.97600  Biso   1.000  H
  C1052    1.0000 0.65567  0.41430  0.97440  Biso   1.000  C
  C1053    1.0000 0.67214  0.40360  0.98050  Biso   1.000  C
  H1003    1.0000 0.67800  0.42670  0.97500  Biso   1.000  H
  C1054    1.0000 0.63263  0.46900  0.95290  Biso   1.000  C
  H1004    1.0000 0.63120  0.47000  0.97200  Biso   1.000  H
  H1005    1.0000 0.62510  0.44370  0.93860  Biso   1.000  H
  C1055    1.0000 0.62793  0.51780  0.93610  Biso   1.000  C
  C1056    1.0000 0.63050  0.51650  0.90650  Biso   1.000  C
  H1006    1.0000 0.64230  0.50810  0.91310  Biso   1.000  H
  H1007    1.0000 0.62800  0.54810  0.89640  Biso   1.000  H
  H1008    1.0000 0.62300  0.49240  0.89150  Biso   1.000  H
  Cd25     1.0000 0.20672  0.83569  0.00227  Biso   1.000  Cd
  Cd26     1.0000 0.10745  0.49205  0.94595  Biso   1.000  Cd
  Cd27     1.0000 0.15402  0.45161  0.26639  Biso   1.000  Cd
  Cd28     1.0000 0.24745  0.81195  0.31421  Biso   1.000  Cd
  Cd29     1.0000 0.14423  0.12132  0.10242  Biso   1.000  Cd
  Cd30     1.0000 0.04602  0.86350  0.87549  Biso   1.000  Cd
  Cd31     1.0000 0.03378  0.63702  0.10051  Biso   1.000  Cd
  Cd32     1.0000 0.12556  0.87889  0.32716  Biso   1.000  Cd
  O73      1.0000 0.22514  0.93700  0.11440  Biso   1.000  O
  O74      1.0000 0.23892  0.91540  0.20860  Biso   1.000  O
  O75      1.0000 0.20174  0.00250  0.14400  Biso   1.000  O
  N145     1.0000 0.21586  0.89570  0.98040  Biso   1.000  N
  N146     1.0000 0.21932  0.89590  0.04030  Biso   1.000  N
  N147     1.0000 0.26901  0.76050  0.31580  Biso   1.000  N
  N148     1.0000 0.25343  0.83630  0.27480  Biso   1.000  N
  N149     1.0000 0.12548  0.05620  0.08750  Biso   1.000  N
  N150     1.0000 0.16040  0.04960  0.11520  Biso   1.000  N
  C1057    1.0000 0.21540  0.89340  0.95080  Biso   1.000  C
  C1058    1.0000 0.22950  0.90260  0.94790  Biso   1.000  C
  H1009    1.0000 0.24000  0.90970  0.96610  Biso   1.000  H
  C1059    1.0000 0.22840  0.90170  0.91830  Biso   1.000  C
  H1010    1.0000 0.23780  0.91200  0.91620  Biso   1.000  H
  C1060    1.0000 0.21410  0.88640  0.89190  Biso   1.000  C
  C1061    1.0000 0.20020  0.87730  0.89500  Biso   1.000  C
  H1011    1.0000 0.18990  0.86990  0.87660  Biso   1.000  H
  C1062    1.0000 0.20080  0.87860  0.92490  Biso   1.000  C
  H1012    1.0000 0.19130  0.86950  0.92690  Biso   1.000  H
  C1063    1.0000 0.21410  0.87590  0.86100  Biso   1.000  C
  H1013    1.0000 0.21630  0.84170  0.86000  Biso   1.000  H
  H1014    1.0000 0.22280  0.89520  0.85990  Biso   1.000  H
  H1015    1.0000 0.20300  0.88420  0.84320  Biso   1.000  H
  C1064    1.0000 0.22310  0.93130  0.99860  Biso   1.000  C
  H1016    1.0000 0.22720  0.95700  0.99140  Biso   1.000  H
  C1065    1.0000 0.22510  0.93340  0.03050  Biso   1.000  C
  C1066    1.0000 0.23190  0.97310  0.04900  Biso   1.000  C
  H1017    1.0000 0.23600  0.99900  0.04170  Biso   1.000  H
  C1067    1.0000 0.23270  0.97550  0.07830  Biso   1.000  C
  H1018    1.0000 0.23740  0.00280  0.09160  Biso   1.000  H
  C1068    1.0000 0.22670  0.93770  0.08760  Biso   1.000  C
  C1069    1.0000 0.22010  0.89900  0.06860  Biso   1.000  C
  H1019    1.0000 0.21600  0.87300  0.07560  Biso   1.000  H
  C1070    1.0000 0.23110  0.97880  0.13460  Biso   1.000  C
  H1020    1.0000 0.22410  0.00720  0.12350  Biso   1.000  H
  H1021    1.0000 0.24300  0.98560  0.14080  Biso   1.000  H
  C1071    1.0000 0.27737  0.72250  0.33810  Biso   1.000  C
  C1072    1.0000 0.28166  0.72950  0.36900  Biso   1.000  C
  H1022    1.0000 0.28000  0.76040  0.37540  Biso   1.000  H
  C1073    1.0000 0.28830  0.69400  0.39110  Biso   1.000  C
  H1023    1.0000 0.29110  0.70020  0.41240  Biso   1.000  H
  C1074    1.0000 0.29090  0.64850  0.38220  Biso   1.000  C
  C1075    1.0000 0.28740  0.64130  0.35210  Biso   1.000  C
  H1024    1.0000 0.28990  0.61090  0.34630  Biso   1.000  H
  C1076    1.0000 0.28010  0.67820  0.32870  Biso   1.000  C
  H1025    1.0000 0.27720  0.67230  0.30720  Biso   1.000  H
  C1077    1.0000 0.29830  0.60680  0.40590  Biso   1.000  C
  H1026    1.0000 0.30020  0.61730  0.42670  Biso   1.000  H
  H1027    1.0000 0.29040  0.57970  0.39850  Biso   1.000  H
  H1028    1.0000 0.30910  0.59660  0.40750  Biso   1.000  H
  C1078    1.0000 0.27048  0.76430  0.29090  Biso   1.000  C
  H1029    1.0000 0.27720  0.74150  0.28740  Biso   1.000  H
  C1079    1.0000 0.26214  0.80290  0.26760  Biso   1.000  C
  C1080    1.0000 0.26412  0.80690  0.24180  Biso   1.000  C
  H1030    1.0000 0.27120  0.78460  0.23890  Biso   1.000  H
  C1081    1.0000 0.25610  0.84280  0.21920  Biso   1.000  C
  H1031    1.0000 0.25680  0.84410  0.20020  Biso   1.000  H
  C1082    1.0000 0.24710  0.87660  0.22620  Biso   1.000  C
  C1083    1.0000 0.24622  0.87220  0.25430  Biso   1.000  C
  H1032    1.0000 0.24020  0.89600  0.25900  Biso   1.000  H
  C1084    1.0000 0.23980  0.92150  0.17980  Biso   1.000  C
  H1033    1.0000 0.23500  0.89310  0.16590  Biso   1.000  H
  H1034    1.0000 0.25170  0.92570  0.18460  Biso   1.000  H
  C1085    1.0000 0.10738  0.05890  0.07430  Biso   1.000  C
  C1086    1.0000 0.09810  0.03080  0.08330  Biso   1.000  C
  H1035    1.0000 0.10360  0.00680  0.09900  Biso   1.000  H
  C1087    1.0000 0.08090  0.03660  0.07010  Biso   1.000  C
  H1036    1.0000 0.07460  0.01590  0.07610  Biso   1.000  H
  C1088    1.0000 0.07280  0.07220  0.04810  Biso   1.000  C
  C1089    1.0000 0.08160  0.10100  0.03940  Biso   1.000  C
  H1037    1.0000 0.07610  0.12550  0.02410  Biso   1.000  H
  C1090    1.0000 0.09900  0.09460  0.05310  Biso   1.000  C
  H1038    1.0000 0.10530  0.11600  0.04740  Biso   1.000  H
  C1091    1.0000 0.05360  0.07840  0.03290  Biso   1.000  C
  H1039    1.0000 0.05100  0.10170  0.04520  Biso   1.000  H
  H1040    1.0000 0.04840  0.04740  0.03270  Biso   1.000  H
  H1041    1.0000 0.04910  0.09010  0.01120  Biso   1.000  H
  C1092    1.0000 0.13263  0.01580  0.09500  Biso   1.000  C
  H1042    1.0000 0.12570  0.98800  0.09060  Biso   1.000  H
  C1093    1.0000 0.15094  0.00940  0.11010  Biso   1.000  C
  C1094    1.0000 0.15828  0.96470  0.11650  Biso   1.000  C
  H1043    1.0000 0.15140  0.93690  0.11270  Biso   1.000  H
  C1095    1.0000 0.17569  0.95960  0.12860  Biso   1.000  C
  H1044    1.0000 0.18090  0.92880  0.13330  Biso   1.000  H
  C1096    1.0000 0.18488  0.00020  0.13350  Biso   1.000  C
  C1097    1.0000 0.17648  0.04450  0.12680  Biso   1.000  C
  H1045    1.0000 0.18310  0.07280  0.13120  Biso   1.000  H
  C1098    1.0000 0.21104  0.95750  0.15410  Biso   1.000  C
  H1046    1.0000 0.20620  0.93380  0.13660  Biso   1.000  H
  H1047    1.0000 0.21020  0.94410  0.17230  Biso   1.000  H
  C1099    1.0000 0.22936  0.96690  0.16360  Biso   1.000  C
  C1100    1.0000 0.23680  0.00940  0.18760  Biso   1.000  C
  H1048    1.0000 0.23700  0.00070  0.20740  Biso   1.000  H
  H1049    1.0000 0.22980  0.03800  0.17850  Biso   1.000  H
  H1050    1.0000 0.24840  0.01600  0.19180  Biso   1.000  H
  O76      1.0000 0.09774  0.42390  0.04500  Biso   1.000  O
  O77      1.0000 0.10768  0.41280  0.13950  Biso   1.000  O
  O78      1.0000 0.07651  0.49350  0.09220  Biso   1.000  O
  N151     1.0000 0.12780  0.43370  0.95330  Biso   1.000  N
  N152     1.0000 0.11048  0.44020  0.98680  Biso   1.000  N
  N153     1.0000 0.13869  0.41010  0.28650  Biso   1.000  N
  N154     1.0000 0.13009  0.41710  0.22340  Biso   1.000  N
  N155     1.0000 0.05225  0.69910  0.10420  Biso   1.000  N
  N156     1.0000 0.05744  0.60250  0.09760  Biso   1.000  N
  C1101    1.0000 0.13669  0.43440  0.93620  Biso   1.000  C
  C1102    1.0000 0.15381  0.42800  0.94990  Biso   1.000  C
  H1051    1.0000 0.16020  0.42160  0.97190  Biso   1.000  H
  C1103    1.0000 0.16200  0.43080  0.93190  Biso   1.000  C
  H1052    1.0000 0.17370  0.42350  0.94130  Biso   1.000  H
  C1104    1.0000 0.15320  0.44400  0.90080  Biso   1.000  C
  C1105    1.0000 0.13600  0.44890  0.88660  Biso   1.000  C
  H1053    1.0000 0.12950  0.45400  0.86440  Biso   1.000  H
  C1106    1.0000 0.12760  0.44630  0.90510  Biso   1.000  C
  H1054    1.0000 0.11580  0.45290  0.89580  Biso   1.000  H
  C1107    1.0000 0.16170  0.45300  0.88110  Biso   1.000  C
  H1055    1.0000 0.17400  0.45050  0.89450  Biso   1.000  H
  H1056    1.0000 0.15890  0.48530  0.87190  Biso   1.000  H
  H1057    1.0000 0.15790  0.42910  0.86410  Biso   1.000  H
  C1108    1.0000 0.13188  0.40620  0.97750  Biso   1.000  C
  H1058    1.0000 0.14050  0.38280  0.98280  Biso   1.000  H
  C1109    1.0000 0.12377  0.40970  0.99700  Biso   1.000  C
  C1110    1.0000 0.12914  0.38170  0.02350  Biso   1.000  C
  H1059    1.0000 0.13830  0.35980  0.02970  Biso   1.000  H
  C1111    1.0000 0.12098  0.38630  0.04090  Biso   1.000  C
  H1060    1.0000 0.12460  0.36810  0.05970  Biso   1.000  H
  C1112    1.0000 0.10767  0.41700  0.03100  Biso   1.000  C
  C1113    1.0000 0.10251  0.44270  0.00380  Biso   1.000  C
  H1061    1.0000 0.09290  0.46310  0.99680  Biso   1.000  H
  C1114    1.0000 0.10188  0.40310  0.07520  Biso   1.000  C
  H1062    1.0000 0.11330  0.41340  0.09160  Biso   1.000  H
  H1063    1.0000 0.10170  0.36760  0.07390  Biso   1.000  H
  C1115    1.0000 0.14361  0.41160  0.31930  Biso   1.000  C
  C1116    1.0000 0.16002  0.40480  0.34160  Biso   1.000  C
  H1064    1.0000 0.16800  0.39690  0.33500  Biso   1.000  H
  C1117    1.0000 0.16540  0.40900  0.37340  Biso   1.000  C
  H1065    1.0000 0.17690  0.40380  0.38850  Biso   1.000  H
  C1118    1.0000 0.15390  0.42080  0.38340  Biso   1.000  C
  C1119    1.0000 0.13750  0.42710  0.36140  Biso   1.000  C
  H1066    1.0000 0.12960  0.43500  0.36830  Biso   1.000  H
  C1120    1.0000 0.13161  0.42250  0.32840  Biso   1.000  C
  H1067    1.0000 0.12000  0.42660  0.31320  Biso   1.000  H
  C1121    1.0000 0.15870  0.42640  0.41890  Biso   1.000  C
  H1068    1.0000 0.16820  0.40500  0.43190  Biso   1.000  H
  H1069    1.0000 0.14890  0.41800  0.42150  Biso   1.000  H
  H1070    1.0000 0.16200  0.45980  0.42560  Biso   1.000  H
  C1122    1.0000 0.12470  0.39250  0.26500  Biso   1.000  C
  H1071    1.0000 0.11740  0.37770  0.27130  Biso   1.000  H
  C1123    1.0000 0.11948  0.39420  0.23120  Biso   1.000  C
  C1124    1.0000 0.10410  0.37810  0.20890  Biso   1.000  C
  H1072    1.0000 0.09650  0.36480  0.21520  Biso   1.000  H
  C1125    1.0000 0.09930  0.38100  0.17680  Biso   1.000  C
  H1073    1.0000 0.08880  0.36840  0.16100  Biso   1.000  H
  C1126    1.0000 0.11048  0.40320  0.16870  Biso   1.000  C
  C1127    1.0000 0.12579  0.42060  0.19290  Biso   1.000  C
  H1074    1.0000 0.13340  0.43560  0.18750  Biso   1.000  H
  C1128    1.0000 0.09125  0.39830  0.11420  Biso   1.000  C
  H1075    1.0000 0.08230  0.40870  0.11900  Biso   1.000  H
  H1076    1.0000 0.09080  0.36280  0.11210  Biso   1.000  H
  C1129    1.0000 0.04760  0.74890  0.10300  Biso   1.000  C
  C1130    1.0000 0.04650  0.77820  0.07940  Biso   1.000  C
  H1077    1.0000 0.04880  0.76560  0.06360  Biso   1.000  H
  C1131    1.0000 0.04220  0.82530  0.07830  Biso   1.000  C
  H1078    1.0000 0.04230  0.84570  0.06270  Biso   1.000  H
  C1132    1.0000 0.03760  0.84370  0.09920  Biso   1.000  C
  C1133    1.0000 0.03850  0.81550  0.12220  Biso   1.000  C
  H1079    1.0000 0.03500  0.82760  0.13660  Biso   1.000  H
  C1134    1.0000 0.04440  0.76810  0.12540  Biso   1.000  C
  H1080    1.0000 0.04610  0.74940  0.14320  Biso   1.000  H
  C1135    1.0000 0.03140  0.89660  0.09490  Biso   1.000  C
  H1081    1.0000 0.03440  0.91040  0.11560  Biso   1.000  H
  H1082    1.0000 0.01910  0.89750  0.08140  Biso   1.000  H
  H1083    1.0000 0.03680  0.91530  0.08510  Biso   1.000  H
  C1136    1.0000 0.06400  0.68750  0.09870  Biso   1.000  C
  H1084    1.0000 0.07040  0.71190  0.09550  Biso   1.000  H
  C1137    1.0000 0.06800  0.63610  0.09720  Biso   1.000  C
  C1138    1.0000 0.08050  0.62480  0.09020  Biso   1.000  C
  H1085    1.0000 0.08640  0.64950  0.08610  Biso   1.000  H
  C1139    1.0000 0.08462  0.57630  0.08930  Biso   1.000  C
  H1086    1.0000 0.09390  0.56760  0.08630  Biso   1.000  H
  C1140    1.0000 0.07489  0.54220  0.09280  Biso   1.000  C
  C1141    1.0000 0.06138  0.55780  0.09750  Biso   1.000  C
  H1087    1.0000 0.05480  0.53410  0.10060  Biso   1.000  H
  C1142    1.0000 0.08984  0.47630  0.08610  Biso   1.000  C
  H1088    1.0000 0.10110  0.48560  0.10370  Biso   1.000  H
  H1089    1.0000 0.08850  0.49040  0.06630  Biso   1.000  H
  C1143    1.0000 0.08835  0.42130  0.08330  Biso   1.000  C
  C1144    1.0000 0.07021  0.40680  0.05720  Biso   1.000  C
  H1090    1.0000 0.06980  0.37200  0.05370  Biso   1.000  H
  H1091    1.0000 0.06750  0.42360  0.03740  Biso   1.000  H
  H1092    1.0000 0.06200  0.41570  0.06400  Biso   1.000  H
  O79      1.0000 0.18824  0.59560  0.35760  Biso   1.000  O
  O80      1.0000 0.21479  0.71990  0.37120  Biso   1.000  O
  O81      1.0000 0.17436  0.73430  0.35670  Biso   1.000  O
  N157     1.0000 0.17750  0.40140  0.28410  Biso   1.000  N
  N158     1.0000 0.17640  0.48800  0.31210  Biso   1.000  N
  N159     1.0000 0.26456  0.85920  0.35740  Biso   1.000  N
  N160     1.0000 0.24158  0.79200  0.35410  Biso   1.000  N
  N161     1.0000 0.11467  0.87040  0.27110  Biso   1.000  N
  N162     1.0000 0.14049  0.81720  0.31830  Biso   1.000  N
  C1145    1.0000 0.17720  0.35260  0.27560  Biso   1.000  C
  C1146    1.0000 0.16420  0.33530  0.24740  Biso   1.000  C
  H1093    1.0000 0.15610  0.35710  0.23280  Biso   1.000  H
  C1147    1.0000 0.16290  0.28640  0.24010  Biso   1.000  C
  H1094    1.0000 0.15380  0.27500  0.22080  Biso   1.000  H
  C1148    1.0000 0.17470  0.25470  0.26090  Biso   1.000  C
  C1149    1.0000 0.18840  0.27250  0.28770  Biso   1.000  C
  H1095    1.0000 0.19680  0.25100  0.30200  Biso   1.000  H
  C1150    1.0000 0.19010  0.32270  0.29430  Biso   1.000  C
  H1096    1.0000 0.20010  0.33520  0.31150  Biso   1.000  H
  C1151    1.0000 0.17450  0.20180  0.25320  Biso   1.000  C
  H1097    1.0000 0.17230  0.18270  0.26790  Biso   1.000  H
  H1098    1.0000 0.18540  0.19270  0.25520  Biso   1.000  H
  H1099    1.0000 0.16550  0.19590  0.23140  Biso   1.000  H
  C1152    1.0000 0.19090  0.42290  0.30390  Biso   1.000  C
  H1100    1.0000 0.20140  0.40740  0.31010  Biso   1.000  H
  C1153    1.0000 0.19127  0.46940  0.31780  Biso   1.000  C
  C1154    1.0000 0.20600  0.49510  0.33370  Biso   1.000  C
  H1101    1.0000 0.21640  0.48290  0.33600  Biso   1.000  H
  C1155    1.0000 0.20540  0.53880  0.34610  Biso   1.000  C
  H1102    1.0000 0.21530  0.55810  0.35640  Biso   1.000  H
  C1156    1.0000 0.19059  0.55460  0.34380  Biso   1.000  C
  C1157    1.0000 0.17631  0.53030  0.32500  Biso   1.000  C
  H1103    1.0000 0.16580  0.54380  0.32070  Biso   1.000  H
  C1158    1.0000 0.20244  0.62700  0.37420  Biso   1.000  C
  H1104    1.0000 0.20780  0.63410  0.36110  Biso   1.000  H
  H1105    1.0000 0.21090  0.61180  0.39420  Biso   1.000  H
  C1159    1.0000 0.27684  0.89480  0.35880  Biso   1.000  C
  C1160    1.0000 0.28730  0.88350  0.34700  Biso   1.000  C
  H1106    1.0000 0.28620  0.85310  0.33730  Biso   1.000  H
  C1161    1.0000 0.29940  0.91540  0.34880  Biso   1.000  C
  H1107    1.0000 0.30700  0.90620  0.34160  Biso   1.000  H
  C1162    1.0000 0.30030  0.96110  0.36120  Biso   1.000  C
  C1163    1.0000 0.28890  0.97330  0.37010  Biso   1.000  C
  H1108    1.0000 0.28870  0.00560  0.37640  Biso   1.000  H
  C1164    1.0000 0.27690  0.94010  0.37050  Biso   1.000  C
  H1109    1.0000 0.26940  0.94870  0.37830  Biso   1.000  H
  C1165    1.0000 0.31300  0.99930  0.36250  Biso   1.000  C
  H1110    1.0000 0.32430  0.99210  0.38010  Biso   1.000  H
  H1111    1.0000 0.30940  0.03120  0.36550  Biso   1.000  H
  H1112    1.0000 0.31340  0.99880  0.34260  Biso   1.000  H
  C1166    1.0000 0.26237  0.85410  0.38150  Biso   1.000  C
  H1113    1.0000 0.26870  0.87330  0.39980  Biso   1.000  H
  C1167    1.0000 0.25016  0.81880  0.38120  Biso   1.000  C
  C1168    1.0000 0.24782  0.81200  0.40670  Biso   1.000  C
  H1114    1.0000 0.25420  0.83040  0.42540  Biso   1.000  H
  C1169    1.0000 0.23618  0.77840  0.40610  Biso   1.000  C
  H1115    1.0000 0.23440  0.77370  0.42370  Biso   1.000  H
  C1170    1.0000 0.22721  0.75200  0.37800  Biso   1.000  C
  C1171    1.0000 0.23035  0.76060  0.35270  Biso   1.000  C
  H1116    1.0000 0.22400  0.74300  0.33360  Biso   1.000  H
  C1172    1.0000 0.21008  0.71010  0.39520  Biso   1.000  C
  H1117    1.0000 0.20630  0.73990  0.40100  Biso   1.000  H
  H1118    1.0000 0.21980  0.69690  0.41440  Biso   1.000  H
  C1173    1.0000 0.09930  0.89230  0.24800  Biso   1.000  C
  C1174    1.0000 0.08450  0.86720  0.22950  Biso   1.000  C
  H1119    1.0000 0.08420  0.83340  0.23180  Biso   1.000  H
  C1175    1.0000 0.07010  0.89200  0.20720  Biso   1.000  C
  H1120    1.0000 0.05990  0.87470  0.19480  Biso   1.000  H
  C1176    1.0000 0.07050  0.94120  0.20330  Biso   1.000  C
  C1177    1.0000 0.08490  0.96530  0.22140  Biso   1.000  C
  H1121    1.0000 0.08540  0.99890  0.21860  Biso   1.000  H
  C1178    1.0000 0.09890  0.94090  0.24450  Biso   1.000  C
  H1122    1.0000 0.10870  0.95900  0.25840  Biso   1.000  H
  C1179    1.0000 0.05460  0.96910  0.17920  Biso   1.000  C
  H1123    1.0000 0.04870  0.95070  0.15950  Biso   1.000  H
  H1124    1.0000 0.05790  0.00050  0.17490  Biso   1.000  H
  H1125    1.0000 0.04690  0.97370  0.18810  Biso   1.000  H
  C1180    1.0000 0.11969  0.83260  0.26400  Biso   1.000  C
  H1126    1.0000 0.11400  0.82180  0.24260  Biso   1.000  H
  C1181    1.0000 0.13412  0.80450  0.28750  Biso   1.000  C
  C1182    1.0000 0.14070  0.76840  0.27800  Biso   1.000  C
  H1127    1.0000 0.13580  0.76050  0.25620  Biso   1.000  H
  C1183    1.0000 0.15450  0.74290  0.30040  Biso   1.000  C
  H1128    1.0000 0.15920  0.71710  0.29430  Biso   1.000  H
  C1184    1.0000 0.16113  0.75580  0.33130  Biso   1.000  C
  C1185    1.0000 0.15315  0.79270  0.33920  Biso   1.000  C
  H1129    1.0000 0.15730  0.79980  0.36100  Biso   1.000  H
  C1186    1.0000 0.18100  0.69120  0.35030  Biso   1.000  C
  H1130    1.0000 0.18490  0.69810  0.33480  Biso   1.000  H
  H1131    1.0000 0.17210  0.66630  0.34120  Biso   1.000  H
  C1187    1.0000 0.19568  0.67330  0.38120  Biso   1.000  C
  C1188    1.0000 0.18941  0.66500  0.40550  Biso   1.000  C
  H1132    1.0000 0.19880  0.65280  0.42530  Biso   1.000  H
  H1133    1.0000 0.18020  0.64140  0.39700  Biso   1.000  H
  H1134    1.0000 0.18530  0.69540  0.40950  Biso   1.000  H
  O82      1.0000 0.15141  0.75040  0.89950  Biso   1.000  O
  O83      1.0000 0.11431  0.65320  0.88340  Biso   1.000  O
  O84      1.0000 0.10255  0.77060  0.87820  Biso   1.000  O
  N163     1.0000 0.22627  0.77580  0.00660  Biso   1.000  N
  N164     1.0000 0.19274  0.78260  0.95930  Biso   1.000  N
  N165     1.0000 0.08424  0.46140  0.90040  Biso   1.000  N
  N166     1.0000 0.10205  0.54310  0.90340  Biso   1.000  N
  N167     1.0000 0.05833  0.86000  0.93170  Biso   1.000  N
  N168     1.0000 0.07326  0.82710  0.89680  Biso   1.000  N
  C1189    1.0000 0.24332  0.77230  0.03050  Biso   1.000  C
  C1190    1.0000 0.25100  0.72880  0.04360  Biso   1.000  C
  H1135    1.0000 0.24490  0.69960  0.03580  Biso   1.000  H
  C1191    1.0000 0.26760  0.72780  0.06790  Biso   1.000  C
  H1136    1.0000 0.27310  0.69780  0.07540  Biso   1.000  H
  C1192    1.0000 0.27610  0.76940  0.08130  Biso   1.000  C
  C1193    1.0000 0.26860  0.81270  0.06790  Biso   1.000  C
  H1137    1.0000 0.27470  0.84180  0.07620  Biso   1.000  H
  C1194    1.0000 0.25201  0.81420  0.04190  Biso   1.000  C
  H1138    1.0000 0.24700  0.84410  0.03260  Biso   1.000  H
  C1195    1.0000 0.29360  0.76940  0.11010  Biso   1.000  C
  H1139    1.0000 0.29810  0.80220  0.11420  Biso   1.000  H
  H1140    1.0000 0.30100  0.74830  0.10620  Biso   1.000  H
  H1141    1.0000 0.29290  0.75770  0.12850  Biso   1.000  H
  C1196    1.0000 0.21921  0.74120  0.98660  Biso   1.000  C
  H1142    1.0000 0.22600  0.71440  0.98760  Biso   1.000  H
  C1197    1.0000 0.20152  0.74120  0.96270  Biso   1.000  C
  C1198    1.0000 0.19380  0.70110  0.94460  Biso   1.000  C
  H1143    1.0000 0.20030  0.67330  0.94650  Biso   1.000  H
  C1199    1.0000 0.17680  0.70110  0.92370  Biso   1.000  C
  H1144    1.0000 0.17120  0.67310  0.91200  Biso   1.000  H
  C1200    1.0000 0.16814  0.74280  0.92050  Biso   1.000  C
  C1201    1.0000 0.17630  0.78230  0.93790  Biso   1.000  C
  H1145    1.0000 0.17000  0.81100  0.93480  Biso   1.000  H
  C1202    1.0000 0.14076  0.70880  0.88550  Biso   1.000  C
  H1146    1.0000 0.14260  0.68500  0.90210  Biso   1.000  H
  H1147    1.0000 0.14350  0.69340  0.87010  Biso   1.000  H
  C1203    1.0000 0.07470  0.41960  0.90040  Biso   1.000  C
  C1204    1.0000 0.08260  0.38090  0.91900  Biso   1.000  C
  H1148    1.0000 0.09460  0.38120  0.93160  Biso   1.000  H
  C1205    1.0000 0.07380  0.34120  0.92020  Biso   1.000  C
  H1149    1.0000 0.07960  0.31510  0.93380  Biso   1.000  H
  C1206    1.0000 0.05630  0.33940  0.90160  Biso   1.000  C
  C1207    1.0000 0.04860  0.37690  0.88240  Biso   1.000  C
  H1150    1.0000 0.03660  0.37590  0.86960  Biso   1.000  H
  C1208    1.0000 0.05730  0.41810  0.88020  Biso   1.000  C
  H1151    1.0000 0.05150  0.44330  0.86570  Biso   1.000  H
  C1209    1.0000 0.04530  0.29910  0.90440  Biso   1.000  C
  H1152    1.0000 0.05260  0.27620  0.92080  Biso   1.000  H
  H1153    1.0000 0.03910  0.28230  0.88400  Biso   1.000  H
  H1154    1.0000 0.03720  0.31320  0.91000  Biso   1.000  H
  C1210    1.0000 0.08000  0.48430  0.87440  Biso   1.000  C
  H1155    1.0000 0.07110  0.47240  0.85490  Biso   1.000  H
  C1211    1.0000 0.08878  0.52880  0.87490  Biso   1.000  C
  C1212    1.0000 0.08470  0.55410  0.84770  Biso   1.000  C
  H1156    1.0000 0.07590  0.54260  0.82810  Biso   1.000  H
  C1213    1.0000 0.09311  0.59610  0.84830  Biso   1.000  C
  H1157    1.0000 0.09060  0.61310  0.82940  Biso   1.000  H
  C1214    1.0000 0.10548  0.61230  0.87790  Biso   1.000  C
  C1215    1.0000 0.10996  0.58390  0.90470  Biso   1.000  C
  H1158    1.0000 0.11890  0.59420  0.92450  Biso   1.000  H
  C1216    1.0000 0.11038  0.68350  0.85620  Biso   1.000  C
  H1159    1.0000 0.09850  0.69470  0.84620  Biso   1.000  H
  H1160    1.0000 0.11210  0.66560  0.84020  Biso   1.000  H
  C1217    1.0000 0.05150  0.87940  0.95070  Biso   1.000  C
  C1218    1.0000 0.06090  0.90140  0.97930  Biso   1.000  C
  H1161    1.0000 0.07280  0.90400  0.98750  Biso   1.000  H
  C1219    1.0000 0.05380  0.91980  0.99660  Biso   1.000  C
  H1162    1.0000 0.06060  0.93480  0.01650  Biso   1.000  H
  C1220    1.0000 0.03630  0.91610  0.98420  Biso   1.000  C
  C1221    1.0000 0.02680  0.89330  0.95640  Biso   1.000  C
  H1163    1.0000 0.01500  0.88880  0.94860  Biso   1.000  H
  C1222    1.0000 0.03450  0.87660  0.93920  Biso   1.000  C
  H1164    1.0000 0.02760  0.86290  0.91880  Biso   1.000  H
  C1223    1.0000 0.02860  0.93680  0.00390  Biso   1.000  C
  H1165    1.0000 0.03750  0.95180  0.02320  Biso   1.000  H
  H1166    1.0000 0.02000  0.96100  0.99140  Biso   1.000  H
  H1167    1.0000 0.02330  0.91090  0.00970  Biso   1.000  H
  C1224    1.0000 0.07350  0.84810  0.94550  Biso   1.000  C
  H1168    1.0000 0.07980  0.85120  0.96790  Biso   1.000  H
  C1225    1.0000 0.08224  0.82970  0.92870  Biso   1.000  C
  C1226    1.0000 0.09861  0.81500  0.94520  Biso   1.000  C
  H1169    1.0000 0.10470  0.81750  0.96760  Biso   1.000  H
  C1227    1.0000 0.10633  0.79650  0.92890  Biso   1.000  C
  H1170    1.0000 0.11790  0.78710  0.93990  Biso   1.000  H
  C1228    1.0000 0.09721  0.79180  0.89700  Biso   1.000  C
  C1229    1.0000 0.08017  0.80740  0.88190  Biso   1.000  C
  H1171    1.0000 0.07350  0.80320  0.85970  Biso   1.000  H
  C1230    1.0000 0.11988  0.75350  0.89360  Biso   1.000  C
  H1172    1.0000 0.12200  0.73210  0.91150  Biso   1.000  H
  H1173    1.0000 0.12780  0.78100  0.90190  Biso   1.000  H
  C1231    1.0000 0.12250  0.72610  0.86890  Biso   1.000  C
  C1232    1.0000 0.11910  0.75970  0.84030  Biso   1.000  C
  H1174    1.0000 0.12670  0.78750  0.84800  Biso   1.000  H
  H1175    1.0000 0.10730  0.77090  0.83010  Biso   1.000  H
  H1176    1.0000 0.12100  0.74180  0.82490  Biso   1.000  H
  O85      1.0000 0.02122  0.62930  0.97490  Biso   1.000  O
  O86      1.0000 0.02697  0.68940  0.90340  Biso   1.000  O
  O87      1.0000 0.05330  0.59360  0.94140  Biso   1.000  O
  N169     1.0000 0.01170  0.69240  0.08890  Biso   1.000  N
  N170     1.0000 0.02086  0.65640  0.04640  Biso   1.000  N
  N171     1.0000 0.03902  0.84370  0.82370  Biso   1.000  N
  N172     1.0000 0.03341  0.78900  0.86500  Biso   1.000  N
  N173     1.0000 0.12826  0.53760  0.99060  Biso   1.000  N
  N174     1.0000 0.09363  0.54730  0.96190  Biso   1.000  N
  C1233    1.0000 0.00660  0.70660  0.11110  Biso   1.000  C
  C1234    1.0000 0.00190  0.75270  0.11280  Biso   1.000  C
  H1177    1.0000 0.00190  0.77600  0.09840  Biso   1.000  H
  C1235    1.0000 0.99710  0.76650  0.13490  Biso   1.000  C
  H1178    1.0000 0.99430  0.79900  0.13610  Biso   1.000  H
  C1236    1.0000 0.99650  0.73270  0.15500  Biso   1.000  C
  C1237    1.0000 0.00080  0.68620  0.15220  Biso   1.000  C
  H1179    1.0000 0.00150  0.66320  0.16730  Biso   1.000  H
  C1238    1.0000 0.00440  0.67010  0.12760  Biso   1.000  C
  H1180    1.0000 0.00520  0.63720  0.12340  Biso   1.000  H
  C1239    1.0000 0.99140  0.74770  0.17950  Biso   1.000  C
  H1181    1.0000 0.99870  0.73150  0.19960  Biso   1.000  H
  H1182    1.0000 0.97960  0.73860  0.17210  Biso   1.000  H
  H1183    1.0000 0.99260  0.78260  0.18260  Biso   1.000  H
  C1240    1.0000 0.00550  0.71070  0.06090  Biso   1.000  C
  H1184    1.0000 0.99800  0.73700  0.05560  Biso   1.000  H
  C1241    1.0000 0.00960  0.69290  0.03720  Biso   1.000  C
  C1242    1.0000 0.00160  0.70960  0.00690  Biso   1.000  C
  H1185    1.0000 0.99320  0.73400  0.00100  Biso   1.000  H
  C1243    1.0000 0.00550  0.69150  0.98510  Biso   1.000  C
  H1186    1.0000 0.00090  0.70490  0.96440  Biso   1.000  H
  C1244    1.0000 0.01636  0.65360  0.99390  Biso   1.000  C
  C1245    1.0000 0.02460  0.63950  0.02470  Biso   1.000  C
  H1187    1.0000 0.03340  0.61660  0.03110  Biso   1.000  H
  C1246    1.0000 0.01590  0.64750  0.94330  Biso   1.000  C
  H1188    1.0000 0.01850  0.68230  0.94400  Biso   1.000  H
  H1189    1.0000 0.00350  0.64290  0.92960  Biso   1.000  H
  C1247    1.0000 0.04360  0.87270  0.80410  Biso   1.000  C
  C1248    1.0000 0.04180  0.92100  0.80410  Biso   1.000  C
  H1190    1.0000 0.03770  0.93550  0.81680  Biso   1.000  H
  C1249    1.0000 0.04610  0.94910  0.78550  Biso   1.000  C
  H1191    1.0000 0.04460  0.98300  0.78520  Biso   1.000  H
  C1250    1.0000 0.05250  0.92900  0.76710  Biso   1.000  C
  C1251    1.0000 0.05340  0.88140  0.76570  Biso   1.000  C
  H1192    1.0000 0.05750  0.86750  0.75270  Biso   1.000  H
  C1252    1.0000 0.04830  0.85110  0.78360  Biso   1.000  C
  H1193    1.0000 0.04820  0.81710  0.78140  Biso   1.000  H
  C1253    1.0000 0.05760  0.96170  0.74730  Biso   1.000  C
  H1194    1.0000 0.04750  0.97590  0.72970  Biso   1.000  H
  H1195    1.0000 0.06360  0.94250  0.73890  Biso   1.000  H
  H1196    1.0000 0.06510  0.98740  0.76080  Biso   1.000  H
  C1254    1.0000 0.03210  0.80210  0.81500  Biso   1.000  C
  H1197    1.0000 0.02850  0.79200  0.79390  Biso   1.000  H
  C1255    1.0000 0.02950  0.76970  0.83600  Biso   1.000  C
  C1256    1.0000 0.02230  0.72550  0.82660  Biso   1.000  C
  H1198    1.0000 0.01830  0.71510  0.80540  Biso   1.000  H
  C1257    1.0000 0.02060  0.69550  0.84840  Biso   1.000  C
  H1199    1.0000 0.01560  0.66460  0.84230  Biso   1.000  H
  C1258    1.0000 0.02650  0.71220  0.87870  Biso   1.000  C
  C1259    1.0000 0.03270  0.75950  0.88620  Biso   1.000  C
  H1200    1.0000 0.03650  0.77100  0.90710  Biso   1.000  H
  C1260    1.0000 0.02200  0.63970  0.89890  Biso   1.000  C
  H1201    1.0000 0.02840  0.62180  0.89050  Biso   1.000  H
  H1202    1.0000 0.00980  0.63690  0.88350  Biso   1.000  H
  C1261    1.0000 0.14600  0.52710  0.00570  Biso   1.000  C
  C1262    1.0000 0.15432  0.50530  0.03460  Biso   1.000  C
  H1203    1.0000 0.14870  0.50020  0.04660  Biso   1.000  H
  C1263    1.0000 0.17064  0.49080  0.04620  Biso   1.000  C
  H1204    1.0000 0.17610  0.47460  0.06600  Biso   1.000  H
  C1264    1.0000 0.17949  0.49890  0.02980  Biso   1.000  C
  C1265    1.0000 0.17132  0.52000  0.00120  Biso   1.000  C
  H1205    1.0000 0.17700  0.52590  0.98940  Biso   1.000  H
  C1266    1.0000 0.15436  0.53330  0.98870  Biso   1.000  C
  H1206    1.0000 0.14850  0.54690  0.96810  Biso   1.000  H
  C1267    1.0000 0.19788  0.48330  0.04410  Biso   1.000  C
  H1207    1.0000 0.20070  0.46210  0.06220  Biso   1.000  H
  H1208    1.0000 0.20520  0.51170  0.05120  Biso   1.000  H
  H1209    1.0000 0.19950  0.46600  0.02820  Biso   1.000  H
  C1268    1.0000 0.12196  0.56020  0.00420  Biso   1.000  C
  H1210    1.0000 0.12930  0.57260  0.02470  Biso   1.000  H
  C1269    1.0000 0.10372  0.56880  0.99030  Biso   1.000  C
  C1270    1.0000 0.09734  0.60020  0.00360  Biso   1.000  C
  H1211    1.0000 0.10460  0.61510  0.02330  Biso   1.000  H
  C1271    1.0000 0.08010  0.61020  0.98820  Biso   1.000  C
  H1212    1.0000 0.07550  0.63280  0.99670  Biso   1.000  H
  C1272    1.0000 0.07010  0.58700  0.96070  Biso   1.000  C
  C1273    1.0000 0.07763  0.55640  0.94830  Biso   1.000  C
  H1213    1.0000 0.07050  0.54140  0.92860  Biso   1.000  H
  C1274    1.0000 0.04442  0.62200  0.95410  Biso   1.000  C
  H1214    1.0000 0.04820  0.65590  0.95680  Biso   1.000  H
  H1215    1.0000 0.04680  0.60920  0.97490  Biso   1.000  H
  C1275    1.0000 0.02563  0.61900  0.93080  Biso   1.000  C
  C1276    1.0000 0.01930  0.56660  0.92390  Biso   1.000  C
  H1216    1.0000 0.02140  0.55090  0.94370  Biso   1.000  H
  H1217    1.0000 0.02540  0.54920  0.91490  Biso   1.000  H
  H1218    1.0000 0.00720  0.56620  0.90890  Biso   1.000  H
  O88      1.0000 0.09481  0.69810  0.30870  Biso   1.000  O
  O89      1.0000 0.06920  0.61310  0.23200  Biso   1.000  O
  O90      1.0000 0.10928  0.57820  0.27820  Biso   1.000  O
  N175     1.0000 0.10128  0.92220  0.31760  Biso   1.000  N
  N176     1.0000 0.10437  0.82200  0.31920  Biso   1.000  N
  N177     1.0000 0.01766  0.56870  0.09160  Biso   1.000  N
  N178     1.0000 0.04223  0.60250  0.14950  Biso   1.000  N
  N179     1.0000 0.16257  0.50880  0.24100  Biso   1.000  N
  N180     1.0000 0.13929  0.52310  0.26100  Biso   1.000  N
  C1277    1.0000 0.10020  0.97240  0.32150  Biso   1.000  C
  C1278    1.0000 0.08844  0.99250  0.32840  Biso   1.000  C
  H1219    1.0000 0.08050  0.97280  0.33070  Biso   1.000  H
  C1279    1.0000 0.08840  0.04230  0.33180  Biso   1.000  C
  H1220    1.0000 0.08060  0.05600  0.33740  Biso   1.000  H
  C1280    1.0000 0.09900  0.07210  0.32760  Biso   1.000  C
  C1281    1.0000 0.11070  0.05250  0.32010  Biso   1.000  C
  H1221    1.0000 0.11810  0.07250  0.31660  Biso   1.000  H
  C1282    1.0000 0.11130  0.00180  0.31790  Biso   1.000  C
  H1222    1.0000 0.11960  0.98780  0.31380  Biso   1.000  H
  C1283    1.0000 0.09910  0.12610  0.33220  Biso   1.000  C
  H1223    1.0000 0.10540  0.13360  0.35490  Biso   1.000  H
  H1224    1.0000 0.08740  0.13760  0.32340  Biso   1.000  H
  H1225    1.0000 0.10450  0.14200  0.32130  Biso   1.000  H
  C1284    1.0000 0.08847  0.89490  0.30800  Biso   1.000  C
  H1226    1.0000 0.07780  0.90960  0.30080  Biso   1.000  H
  C1285    1.0000 0.08903  0.84240  0.30710  Biso   1.000  C
  C1286    1.0000 0.07476  0.81540  0.29480  Biso   1.000  C
  H1227    1.0000 0.06410  0.83080  0.28670  Biso   1.000  H
  C1287    1.0000 0.07549  0.76600  0.29380  Biso   1.000  C
  H1228    1.0000 0.06560  0.74670  0.28460  Biso   1.000  H
  C1288    1.0000 0.09145  0.74640  0.30710  Biso   1.000  C
  C1289    1.0000 0.10525  0.77480  0.31900  Biso   1.000  C
  H1229    1.0000 0.11610  0.76010  0.32760  Biso   1.000  H
  C1290    1.0000 0.08104  0.66820  0.28740  Biso   1.000  C
  H1230    1.0000 0.07540  0.68230  0.26590  Biso   1.000  H
  H1231    1.0000 0.07260  0.66510  0.29470  Biso   1.000  H
  C1291    1.0000 0.00440  0.55110  0.06130  Biso   1.000  C
  C1292    1.0000 0.99170  0.58070  0.04130  Biso   1.000  C
  H1232    1.0000 0.99180  0.61330  0.04710  Biso   1.000  H
  C1293    1.0000 0.97870  0.56470  0.01260  Biso   1.000  C
  H1233    1.0000 0.96970  0.58590  0.99970  Biso   1.000  H
  C1294    1.0000 0.97860  0.51830  0.00280  Biso   1.000  C
  C1295    1.0000 0.99170  0.48960  0.02140  Biso   1.000  C
  H1234    1.0000 0.99240  0.45880  0.01360  Biso   1.000  H
  C1296    1.0000 0.00470  0.50330  0.05240  Biso   1.000  C
  H1235    1.0000 0.01300  0.48110  0.06610  Biso   1.000  H
  C1297    1.0000 0.96490  0.49980  0.97000  Biso   1.000  C
  H1236    1.0000 0.95520  0.48770  0.97170  Biso   1.000  H
  H1237    1.0000 0.96960  0.47380  0.96300  Biso   1.000  H
  H1238    1.0000 0.96120  0.52620  0.95470  Biso   1.000  H
  C1298    1.0000 0.02150  0.54350  0.11640  Biso   1.000  C
  H1239    1.0000 0.01600  0.51370  0.11420  Biso   1.000  H
  C1299    1.0000 0.03430  0.55930  0.14780  Biso   1.000  C
  C1300    1.0000 0.03750  0.53300  0.17400  Biso   1.000  C
  H1240    1.0000 0.03140  0.50410  0.17150  Biso   1.000  H
  C1301    1.0000 0.04950  0.54720  0.20430  Biso   1.000  C
  H1241    1.0000 0.05210  0.52870  0.22270  Biso   1.000  H
  C1302    1.0000 0.05750  0.59130  0.20560  Biso   1.000  C
  C1303    1.0000 0.05350  0.61750  0.17810  Biso   1.000  C
  H1242    1.0000 0.05920  0.64720  0.18000  Biso   1.000  H
  C1304    1.0000 0.07424  0.58840  0.26170  Biso   1.000  C
  H1243    1.0000 0.07820  0.55540  0.26110  Biso   1.000  H
  H1244    1.0000 0.06470  0.58640  0.26610  Biso   1.000  H
  C1305    1.0000 0.17698  0.50240  0.23660  Biso   1.000  C
  C1306    1.0000 0.19030  0.53310  0.24880  Biso   1.000  C
  H1245    1.0000 0.18970  0.56170  0.25890  Biso   1.000  H
  C1307    1.0000 0.20470  0.52350  0.24670  Biso   1.000  C
  H1246    1.0000 0.21410  0.54490  0.25610  Biso   1.000  H
  C1308    1.0000 0.20560  0.48280  0.23100  Biso   1.000  C
  C1309    1.0000 0.19280  0.45200  0.22080  Biso   1.000  C
  H1247    1.0000 0.19360  0.42230  0.21180  Biso   1.000  H
  C1310    1.0000 0.17830  0.46170  0.22280  Biso   1.000  C
  H1248    1.0000 0.16920  0.43940  0.21430  Biso   1.000  H
  C1311    1.0000 0.22130  0.47140  0.22740  Biso   1.000  C
  H1249    1.0000 0.23150  0.48270  0.24620  Biso   1.000  H
  H1250    1.0000 0.22020  0.48760  0.20850  Biso   1.000  H
  H1251    1.0000 0.22200  0.43660  0.22520  Biso   1.000  H
  C1312    1.0000 0.15670  0.55050  0.23950  Biso   1.000  C
  H1252    1.0000 0.15990  0.57560  0.23010  Biso   1.000  H
  C1313    1.0000 0.14510  0.56110  0.25170  Biso   1.000  C
  C1314    1.0000 0.13910  0.60670  0.25060  Biso   1.000  C
  H1253    1.0000 0.14310  0.63250  0.24310  Biso   1.000  H
  C1315    1.0000 0.12730  0.61520  0.26030  Biso   1.000  C
  H1254    1.0000 0.12350  0.64690  0.26080  Biso   1.000  H
  C1316    1.0000 0.12132  0.57670  0.26920  Biso   1.000  C
  C1317    1.0000 0.12764  0.53120  0.26850  Biso   1.000  C
  H1255    1.0000 0.12300  0.50440  0.27380  Biso   1.000  H
  C1318    1.0000 0.10275  0.62540  0.27950  Biso   1.000  C
  H1256    1.0000 0.09850  0.64200  0.25890  Biso   1.000  H
  H1257    1.0000 0.11180  0.64530  0.29610  Biso   1.000  H
  C1319    1.0000 0.08865  0.61830  0.28720  Biso   1.000  C
  C1320    1.0000 0.09400  0.59240  0.31950  Biso   1.000  C
  H1258    1.0000 0.10180  0.61300  0.33690  Biso   1.000  H
  H1259    1.0000 0.09960  0.56190  0.32010  Biso   1.000  H
  H1260    1.0000 0.08390  0.58610  0.32160  Biso   1.000  H
  O91      1.0000 0.16749  0.99960  0.30520  Biso   1.000  O
  O92      1.0000 0.16677  0.06270  0.22760  Biso   1.000  O
  O93      1.0000 0.19801  0.95800  0.28540  Biso   1.000  O
  N181     1.0000 0.14337  0.87480  0.38240  Biso   1.000  N
  N182     1.0000 0.14790  0.93080  0.34000  Biso   1.000  N
  N183     1.0000 0.12545  0.17960  0.10290  Biso   1.000  N
  N184     1.0000 0.14622  0.11900  0.15270  Biso   1.000  N
  N185     1.0000 0.22759  0.75940  0.27440  Biso   1.000  N
  N186     1.0000 0.22050  0.85160  0.28760  Biso   1.000  N
  C1321    1.0000 0.14029  0.84600  0.40340  Biso   1.000  C
  C1322    1.0000 0.15301  0.82160  0.42860  Biso   1.000  C
  H1261    1.0000 0.16430  0.82400  0.43240  Biso   1.000  H
  C1323    1.0000 0.14942  0.79350  0.44840  Biso   1.000  C
  H1262    1.0000 0.15830  0.77740  0.46590  Biso   1.000  H
  C1324    1.0000 0.13325  0.78900  0.44300  Biso   1.000  C
  C1325    1.0000 0.12042  0.81240  0.41750  Biso   1.000  C
  H1263    1.0000 0.10910  0.80890  0.41320  Biso   1.000  H
  C1326    1.0000 0.12405  0.84170  0.39730  Biso   1.000  C
  H1264    1.0000 0.11520  0.85790  0.37980  Biso   1.000  H
  C1327    1.0000 0.12920  0.75760  0.46400  Biso   1.000  C
  H1265    1.0000 0.13420  0.72570  0.46600  Biso   1.000  H
  H1266    1.0000 0.11690  0.75450  0.45470  Biso   1.000  H
  H1267    1.0000 0.13380  0.77230  0.48510  Biso   1.000  H
  C1328    1.0000 0.15678  0.89990  0.39210  Biso   1.000  C
  H1268    1.0000 0.16490  0.89930  0.41400  Biso   1.000  H
  C1329    1.0000 0.16010  0.92920  0.37090  Biso   1.000  C
  C1330    1.0000 0.17528  0.95240  0.38180  Biso   1.000  C
  H1269    1.0000 0.18360  0.95020  0.40350  Biso   1.000  H
  C1331    1.0000 0.17840  0.97910  0.36110  Biso   1.000  C
  H1270    1.0000 0.18840  0.99780  0.36830  Biso   1.000  H
  C1332    1.0000 0.16651  0.97740  0.32970  Biso   1.000  C
  C1333    1.0000 0.15140  0.95560  0.32040  Biso   1.000  C
  H1271    1.0000 0.14290  0.95820  0.29890  Biso   1.000  H
  C1334    1.0000 0.18277  0.02370  0.31160  Biso   1.000  C
  H1272    1.0000 0.19270  0.00430  0.32600  Biso   1.000  H
  H1273    1.0000 0.18350  0.05530  0.32160  Biso   1.000  H
  C1335    1.0000 0.11496  0.21170  0.07690  Biso   1.000  C
  C1336    1.0000 0.09920  0.22610  0.07060  Biso   1.000  C
  H1274    1.0000 0.09420  0.21250  0.08220  Biso   1.000  H
  C1337    1.0000 0.09030  0.26000  0.04760  Biso   1.000  C
  H1275    1.0000 0.08020  0.27380  0.04590  Biso   1.000  H
  C1338    1.0000 0.09620  0.27390  0.02690  Biso   1.000  C
  C1339    1.0000 0.11150  0.25920  0.03270  Biso   1.000  C
  H1276    1.0000 0.11560  0.26920  0.01890  Biso   1.000  H
  C1340    1.0000 0.12190  0.22890  0.05920  Biso   1.000  C
  H1277    1.0000 0.13320  0.22110  0.06430  Biso   1.000  H
  C1341    1.0000 0.08520  0.30700  0.99850  Biso   1.000  C
  H1278    1.0000 0.08290  0.33700  0.00620  Biso   1.000  H
  H1279    1.0000 0.07460  0.29070  0.98430  Biso   1.000  H
  H1280    1.0000 0.09130  0.31410  0.98690  Biso   1.000  H
  C1342    1.0000 0.12390  0.17800  0.12770  Biso   1.000  C
  H1281    1.0000 0.11540  0.19730  0.12840  Biso   1.000  H
  C1343    1.0000 0.13460  0.14780  0.15540  Biso   1.000  C
  C1344    1.0000 0.13220  0.14500  0.18110  Biso   1.000  C
  H1282    1.0000 0.12290  0.16120  0.18080  Biso   1.000  H
  C1345    1.0000 0.14310  0.11890  0.20780  Biso   1.000  C
  H1283    1.0000 0.14250  0.12040  0.22680  Biso   1.000  H
  C1346    1.0000 0.15501  0.09070  0.20530  Biso   1.000  C
  C1347    1.0000 0.15634  0.09310  0.17770  Biso   1.000  C
  H1284    1.0000 0.16500  0.07500  0.17680  Biso   1.000  H
  C1348    1.0000 0.16654  0.05830  0.25750  Biso   1.000  C
  H1285    1.0000 0.15620  0.04100  0.25420  Biso   1.000  H
  H1286    1.0000 0.16670  0.09050  0.26630  Biso   1.000  H
  C1349    1.0000 0.23170  0.71550  0.26400  Biso   1.000  C
  C1350    1.0000 0.23070  0.71290  0.23500  Biso   1.000  C
  H1287    1.0000 0.22680  0.73970  0.22110  Biso   1.000  H
  C1351    1.0000 0.23530  0.67140  0.22600  Biso   1.000  C
  H1288    1.0000 0.23430  0.66950  0.20550  Biso   1.000  H
  C1352    1.0000 0.24140  0.63210  0.24620  Biso   1.000  C
  C1353    1.0000 0.24170  0.63440  0.27410  Biso   1.000  C
  H1289    1.0000 0.24510  0.60710  0.28760  Biso   1.000  H
  C1354    1.0000 0.23690  0.67650  0.28350  Biso   1.000  C
  H1290    1.0000 0.23740  0.67790  0.30350  Biso   1.000  H
  C1355    1.0000 0.24630  0.58500  0.23520  Biso   1.000  C
  H1291    1.0000 0.25680  0.58990  0.23460  Biso   1.000  H
  H1292    1.0000 0.23720  0.57640  0.21390  Biso   1.000  H
  H1293    1.0000 0.24780  0.55900  0.25000  Biso   1.000  H
  C1356    1.0000 0.21367  0.77850  0.25610  Biso   1.000  C
  H1294    1.0000 0.20590  0.76160  0.23760  Biso   1.000  H
  C1357    1.0000 0.20894  0.82650  0.26230  Biso   1.000  C
  C1358    1.0000 0.19320  0.84460  0.24440  Biso   1.000  C
  H1295    1.0000 0.18520  0.82600  0.22710  Biso   1.000  H
  C1359    1.0000 0.18840  0.88950  0.25010  Biso   1.000  C
  H1296    1.0000 0.17750  0.90270  0.23670  Biso   1.000  H
  C1360    1.0000 0.20030  0.91360  0.27630  Biso   1.000  C
  C1361    1.0000 0.21619  0.89290  0.29390  Biso   1.000  C
  H1297    1.0000 0.22440  0.91010  0.31180  Biso   1.000  H
  C1362    1.0000 0.18164  0.98070  0.26530  Biso   1.000  C
  H1298    1.0000 0.17240  0.96100  0.26470  Biso   1.000  H
  H1299    1.0000 0.17970  0.98430  0.24340  Biso   1.000  H
  C1363    1.0000 0.18222  0.03030  0.27980  Biso   1.000  C
  C1364    1.0000 0.19816  0.05770  0.28520  Biso   1.000  C
  H1300    1.0000 0.19760  0.09080  0.29150  Biso   1.000  H
  H1301    1.0000 0.19880  0.05780  0.26550  Biso   1.000  H
  H1302    1.0000 0.20820  0.04180  0.30190  Biso   1.000  H
  O94      1.0000 0.13593  0.05800  0.98490  Biso   1.000  O
  O95      1.0000 0.09933  0.98930  0.90770  Biso   1.000  O
  O96      1.0000 0.14987  0.95850  0.96170  Biso   1.000  O
  N187     1.0000 0.16443  0.18030  0.10840  Biso   1.000  N
  N188     1.0000 0.14710  0.12200  0.05610  Biso   1.000  N
  N189     1.0000 0.02611  0.92310  0.86670  Biso   1.000  N
  N190     1.0000 0.05914  0.93690  0.88200  Biso   1.000  N
  N191     1.0000 0.19613  0.78140  0.02630  Biso   1.000  N
  N192     1.0000 0.17964  0.86330  0.99330  Biso   1.000  N
  C1365    1.0000 0.17132  0.21430  0.13340  Biso   1.000  C
  C1366    1.0000 0.17050  0.26220  0.12710  Biso   1.000  C
  H1303    1.0000 0.16540  0.27270  0.10570  Biso   1.000  H
  C1367    1.0000 0.17700  0.29620  0.15110  Biso   1.000  C
  H1304    1.0000 0.17660  0.32940  0.14610  Biso   1.000  H
  C1368    1.0000 0.18400  0.28180  0.18240  Biso   1.000  C
  C1369    1.0000 0.18500  0.23330  0.18850  Biso   1.000  C
  H1305    1.0000 0.19050  0.22250  0.20980  Biso   1.000  H
  C1370    1.0000 0.17800  0.19880  0.16330  Biso   1.000  C
  H1306    1.0000 0.17810  0.16550  0.16780  Biso   1.000  H
  C1371    1.0000 0.19100  0.31990  0.20760  Biso   1.000  C
  H1307    1.0000 0.19590  0.30470  0.22850  Biso   1.000  H
  H1308    1.0000 0.18200  0.34180  0.20500  Biso   1.000  H
  H1309    1.0000 0.19980  0.33800  0.20580  Biso   1.000  H
  C1372    1.0000 0.16660  0.18510  0.08420  Biso   1.000  C
  H1310    1.0000 0.17400  0.20950  0.08460  Biso   1.000  H
  C1373    1.0000 0.15826  0.15480  0.05630  Biso   1.000  C
  C1374    1.0000 0.16271  0.15660  0.03310  Biso   1.000  C
  H1311    1.0000 0.17060  0.17990  0.03410  Biso   1.000  H
  C1375    1.0000 0.15564  0.12440  0.00790  Biso   1.000  C
  H1312    1.0000 0.15880  0.12410  0.99190  Biso   1.000  H
  C1376    1.0000 0.14383  0.09310  0.00750  Biso   1.000  C
  C1377    1.0000 0.14010  0.09240  0.03160  Biso   1.000  C
  H1313    1.0000 0.13210  0.06950  0.03080  Biso   1.000  H
  C1378    1.0000 0.13905  0.05750  0.95800  Biso   1.000  C
  H1314    1.0000 0.15110  0.05080  0.96520  Biso   1.000  H
  H1315    1.0000 0.13610  0.08890  0.94700  Biso   1.000  H
  C1379    1.0000 0.00850  0.91450  0.85700  Biso   1.000  C
  C1380    1.0000 0.99980  0.88140  0.83420  Biso   1.000  C
  H1316    1.0000 0.00520  0.86570  0.82420  Biso   1.000  H
  C1381    1.0000 0.98330  0.86990  0.82520  Biso   1.000  C
  H1317    1.0000 0.97800  0.84380  0.81110  Biso   1.000  H
  C1382    1.0000 0.97450  0.89610  0.83660  Biso   1.000  C
  C1383    1.0000 0.98280  0.93090  0.85790  Biso   1.000  C
  H1318    1.0000 0.97660  0.94970  0.86520  Biso   1.000  H
  C1384    1.0000 0.00040  0.94120  0.87020  Biso   1.000  C
  H1319    1.0000 0.00610  0.96460  0.88630  Biso   1.000  H
  C1385    1.0000 0.95620  0.88260  0.82800  Biso   1.000  C
  H1320    1.0000 0.95480  0.88560  0.84680  Biso   1.000  H
  H1321    1.0000 0.95400  0.84930  0.82030  Biso   1.000  H
  H1322    1.0000 0.94830  0.90420  0.81140  Biso   1.000  H
  C1386    1.0000 0.03247  0.96520  0.87450  Biso   1.000  C
  H1323    1.0000 0.02560  0.99060  0.87500  Biso   1.000  H
  C1387    1.0000 0.04998  0.97600  0.88270  Biso   1.000  C
  C1388    1.0000 0.05697  0.02070  0.89290  Biso   1.000  C
  H1324    1.0000 0.05020  0.04640  0.89330  Biso   1.000  H
  C1389    1.0000 0.07393  0.02830  0.90260  Biso   1.000  C
  H1325    1.0000 0.07920  0.05820  0.91120  Biso   1.000  H
  C1390    1.0000 0.08296  0.98990  0.89920  Biso   1.000  C
  C1391    1.0000 0.07520  0.94440  0.88970  Biso   1.000  C
  H1326    1.0000 0.08170  0.91820  0.88870  Biso   1.000  H
  C1392    1.0000 0.10962  0.02940  0.92610  Biso   1.000  C
  H1327    1.0000 0.10830  0.03450  0.94500  Biso   1.000  H
  H1328    1.0000 0.10610  0.05920  0.91320  Biso   1.000  H
  C1393    1.0000 0.20370  0.73580  0.04100  Biso   1.000  C
  C1394    1.0000 0.19600  0.69290  0.02850  Biso   1.000  C
  H1329    1.0000 0.18520  0.69270  0.01020  Biso   1.000  H
  C1395    1.0000 0.20360  0.65020  0.04190  Biso   1.000  C
  H1330    1.0000 0.19800  0.62080  0.03290  Biso   1.000  H
  C1396    1.0000 0.21950  0.64940  0.06850  Biso   1.000  C
  C1397    1.0000 0.22700  0.69120  0.08060  Biso   1.000  C
  H1331    1.0000 0.23780  0.69130  0.09920  Biso   1.000  H
  C1398    1.0000 0.21950  0.73520  0.06650  Biso   1.000  C
  H1332    1.0000 0.22550  0.76450  0.07470  Biso   1.000  H
  C1399    1.0000 0.22810  0.60050  0.08310  Biso   1.000  C
  H1333    1.0000 0.23260  0.60140  0.10610  Biso   1.000  H
  H1334    1.0000 0.23730  0.59470  0.07850  Biso   1.000  H
  H1335    1.0000 0.21970  0.57450  0.07400  Biso   1.000  H
  C1400    1.0000 0.18066  0.78700  0.01820  Biso   1.000  C
  H1336    1.0000 0.17480  0.76200  0.02210  Biso   1.000  H
  C1401    1.0000 0.17167  0.83120  0.00270  Biso   1.000  C
  C1402    1.0000 0.15615  0.83880  0.99770  Biso   1.000  C
  H1337    1.0000 0.15100  0.81610  0.00500  Biso   1.000  H
  C1403    1.0000 0.14720  0.88030  0.98160  Biso   1.000  C
  H1338    1.0000 0.13570  0.88450  0.97600  Biso   1.000  H
  C1404    1.0000 0.15567  0.91430  0.97440  Biso   1.000  C
  C1405    1.0000 0.17214  0.90360  0.98050  Biso   1.000  C
  H1339    1.0000 0.17800  0.92670  0.97500  Biso   1.000  H
  C1406    1.0000 0.13263  0.96900  0.95290  Biso   1.000  C
  H1340    1.0000 0.13120  0.97000  0.97200  Biso   1.000  H
  H1341    1.0000 0.12510  0.94370  0.93860  Biso   1.000  H
  C1407    1.0000 0.12793  0.01780  0.93610  Biso   1.000  C
  C1408    1.0000 0.13050  0.01650  0.90650  Biso   1.000  C
  H1342    1.0000 0.14230  0.00810  0.91310  Biso   1.000  H
  H1343    1.0000 0.12800  0.04810  0.89640  Biso   1.000  H
  H1344    1.0000 0.12300  0.99240  0.89150  Biso   1.000  H
  Cd33     1.0000 0.70672  0.66431  0.50227  Biso   1.000  Cd
  Cd34     1.0000 0.60745  0.00795  0.44595  Biso   1.000  Cd
  Cd35     1.0000 0.65402  0.04839  0.76639  Biso   1.000  Cd
  Cd36     1.0000 0.74745  0.68805  0.81421  Biso   1.000  Cd
  Cd37     1.0000 0.64423  0.37868  0.60242  Biso   1.000  Cd
  Cd38     1.0000 0.54602  0.63650  0.37549  Biso   1.000  Cd
  Cd39     1.0000 0.53378  0.86298  0.60051  Biso   1.000  Cd
  Cd40     1.0000 0.62556  0.62111  0.82716  Biso   1.000  Cd
  O97      1.0000 0.72514  0.56300  0.61440  Biso   1.000  O
  O98      1.0000 0.73892  0.58460  0.70860  Biso   1.000  O
  O99      1.0000 0.70174  0.49750  0.64400  Biso   1.000  O
  N193     1.0000 0.71586  0.60430  0.48040  Biso   1.000  N
  N194     1.0000 0.71932  0.60410  0.54030  Biso   1.000  N
  N195     1.0000 0.76901  0.73950  0.81580  Biso   1.000  N
  N196     1.0000 0.75343  0.66370  0.77480  Biso   1.000  N
  N197     1.0000 0.62548  0.44380  0.58750  Biso   1.000  N
  N198     1.0000 0.66040  0.45040  0.61520  Biso   1.000  N
  C1409    1.0000 0.71540  0.60660  0.45080  Biso   1.000  C
  C1410    1.0000 0.72950  0.59740  0.44790  Biso   1.000  C
  H1345    1.0000 0.74000  0.59030  0.46610  Biso   1.000  H
  C1411    1.0000 0.72840  0.59830  0.41830  Biso   1.000  C
  H1346    1.0000 0.73780  0.58800  0.41620  Biso   1.000  H
  C1412    1.0000 0.71410  0.61360  0.39190  Biso   1.000  C
  C1413    1.0000 0.70020  0.62270  0.39500  Biso   1.000  C
  H1347    1.0000 0.68990  0.63010  0.37660  Biso   1.000  H
  C1414    1.0000 0.70080  0.62140  0.42490  Biso   1.000  C
  H1348    1.0000 0.69130  0.63050  0.42690  Biso   1.000  H
  C1415    1.0000 0.71410  0.62410  0.36100  Biso   1.000  C
  H1349    1.0000 0.71630  0.65830  0.36000  Biso   1.000  H
  H1350    1.0000 0.72280  0.60480  0.35990  Biso   1.000  H
  H1351    1.0000 0.70300  0.61580  0.34320  Biso   1.000  H
  C1416    1.0000 0.72310  0.56870  0.49860  Biso   1.000  C
  H1352    1.0000 0.72720  0.54300  0.49140  Biso   1.000  H
  C1417    1.0000 0.72510  0.56660  0.53050  Biso   1.000  C
  C1418    1.0000 0.73190  0.52690  0.54900  Biso   1.000  C
  H1353    1.0000 0.73600  0.50100  0.54170  Biso   1.000  H
  C1419    1.0000 0.73270  0.52450  0.57830  Biso   1.000  C
  H1354    1.0000 0.73740  0.49720  0.59160  Biso   1.000  H
  C1420    1.0000 0.72670  0.56230  0.58760  Biso   1.000  C
  C1421    1.0000 0.72010  0.60100  0.56860  Biso   1.000  C
  H1355    1.0000 0.71600  0.62700  0.57560  Biso   1.000  H
  C1422    1.0000 0.73110  0.52120  0.63460  Biso   1.000  C
  H1356    1.0000 0.72410  0.49280  0.62350  Biso   1.000  H
  H1357    1.0000 0.74300  0.51440  0.64080  Biso   1.000  H
  C1423    1.0000 0.77737  0.77750  0.83810  Biso   1.000  C
  C1424    1.0000 0.78166  0.77050  0.86900  Biso   1.000  C
  H1358    1.0000 0.78000  0.73960  0.87540  Biso   1.000  H
  C1425    1.0000 0.78830  0.80600  0.89110  Biso   1.000  C
  H1359    1.0000 0.79110  0.79980  0.91240  Biso   1.000  H
  C1426    1.0000 0.79090  0.85150  0.88220  Biso   1.000  C
  C1427    1.0000 0.78740  0.85870  0.85210  Biso   1.000  C
  H1360    1.0000 0.78990  0.88910  0.84630  Biso   1.000  H
  C1428    1.0000 0.78010  0.82180  0.82870  Biso   1.000  C
  H1361    1.0000 0.77720  0.82770  0.80720  Biso   1.000  H
  C1429    1.0000 0.79830  0.89320  0.90590  Biso   1.000  C
  H1362    1.0000 0.80020  0.88270  0.92670  Biso   1.000  H
  H1363    1.0000 0.79040  0.92030  0.89850  Biso   1.000  H
  H1364    1.0000 0.80910  0.90340  0.90750  Biso   1.000  H
  C1430    1.0000 0.77048  0.73570  0.79090  Biso   1.000  C
  H1365    1.0000 0.77720  0.75850  0.78740  Biso   1.000  H
  C1431    1.0000 0.76214  0.69710  0.76760  Biso   1.000  C
  C1432    1.0000 0.76412  0.69310  0.74180  Biso   1.000  C
  H1366    1.0000 0.77120  0.71540  0.73890  Biso   1.000  H
  C1433    1.0000 0.75610  0.65720  0.71920  Biso   1.000  C
  H1367    1.0000 0.75680  0.65590  0.70020  Biso   1.000  H
  C1434    1.0000 0.74710  0.62340  0.72620  Biso   1.000  C
  C1435    1.0000 0.74622  0.62780  0.75430  Biso   1.000  C
  H1368    1.0000 0.74020  0.60400  0.75900  Biso   1.000  H
  C1436    1.0000 0.73980  0.57850  0.67980  Biso   1.000  C
  H1369    1.0000 0.73500  0.60690  0.66590  Biso   1.000  H
  H1370    1.0000 0.75170  0.57430  0.68460  Biso   1.000  H
  C1437    1.0000 0.60738  0.44110  0.57430  Biso   1.000  C
  C1438    1.0000 0.59810  0.46920  0.58330  Biso   1.000  C
  H1371    1.0000 0.60360  0.49320  0.59900  Biso   1.000  H
  C1439    1.0000 0.58090  0.46340  0.57010  Biso   1.000  C
  H1372    1.0000 0.57460  0.48410  0.57610  Biso   1.000  H
  C1440    1.0000 0.57280  0.42780  0.54810  Biso   1.000  C
  C1441    1.0000 0.58160  0.39900  0.53940  Biso   1.000  C
  H1373    1.0000 0.57610  0.37450  0.52410  Biso   1.000  H
  C1442    1.0000 0.59900  0.40540  0.55310  Biso   1.000  C
  H1374    1.0000 0.60530  0.38400  0.54740  Biso   1.000  H
  C1443    1.0000 0.55360  0.42160  0.53290  Biso   1.000  C
  H1375    1.0000 0.55100  0.39830  0.54520  Biso   1.000  H
  H1376    1.0000 0.54840  0.45260  0.53270  Biso   1.000  H
  H1377    1.0000 0.54910  0.40990  0.51120  Biso   1.000  H
  C1444    1.0000 0.63263  0.48420  0.59500  Biso   1.000  C
  H1378    1.0000 0.62570  0.51200  0.59060  Biso   1.000  H
  C1445    1.0000 0.65094  0.49060  0.61010  Biso   1.000  C
  C1446    1.0000 0.65828  0.53530  0.61650  Biso   1.000  C
  H1379    1.0000 0.65140  0.56310  0.61270  Biso   1.000  H
  C1447    1.0000 0.67569  0.54040  0.62860  Biso   1.000  C
  H1380    1.0000 0.68090  0.57120  0.63330  Biso   1.000  H
  C1448    1.0000 0.68488  0.49980  0.63350  Biso   1.000  C
  C1449    1.0000 0.67648  0.45550  0.62680  Biso   1.000  C
  H1381    1.0000 0.68310  0.42720  0.63120  Biso   1.000  H
  C1450    1.0000 0.71104  0.54250  0.65410  Biso   1.000  C
  H1382    1.0000 0.70620  0.56620  0.63660  Biso   1.000  H
  H1383    1.0000 0.71020  0.55590  0.67230  Biso   1.000  H
  C1451    1.0000 0.72936  0.53310  0.66360  Biso   1.000  C
  C1452    1.0000 0.73680  0.49060  0.68760  Biso   1.000  C
  H1384    1.0000 0.73700  0.49930  0.70740  Biso   1.000  H
  H1385    1.0000 0.72980  0.46200  0.67850  Biso   1.000  H
  H1386    1.0000 0.74840  0.48400  0.69180  Biso   1.000  H
  O100     1.0000 0.59774  0.07610  0.54500  Biso   1.000  O
  O101     1.0000 0.60768  0.08720  0.63950  Biso   1.000  O
  O102     1.0000 0.57651  0.00650  0.59220  Biso   1.000  O
  N199     1.0000 0.62780  0.06630  0.45330  Biso   1.000  N
  N200     1.0000 0.61048  0.05980  0.48680  Biso   1.000  N
  N201     1.0000 0.63869  0.08990  0.78650  Biso   1.000  N
  N202     1.0000 0.63009  0.08290  0.72340  Biso   1.000  N
  N203     1.0000 0.55225  0.80090  0.60420  Biso   1.000  N
  N204     1.0000 0.55744  0.89750  0.59760  Biso   1.000  N
  C1453    1.0000 0.63669  0.06560  0.43620  Biso   1.000  C
  C1454    1.0000 0.65381  0.07200  0.44990  Biso   1.000  C
  H1387    1.0000 0.66020  0.07840  0.47190  Biso   1.000  H
  C1455    1.0000 0.66200  0.06920  0.43190  Biso   1.000  C
  H1388    1.0000 0.67370  0.07650  0.44130  Biso   1.000  H
  C1456    1.0000 0.65320  0.05600  0.40080  Biso   1.000  C
  C1457    1.0000 0.63600  0.05110  0.38660  Biso   1.000  C
  H1389    1.0000 0.62950  0.04600  0.36440  Biso   1.000  H
  C1458    1.0000 0.62760  0.05370  0.40510  Biso   1.000  C
  H1390    1.0000 0.61580  0.04710  0.39580  Biso   1.000  H
  C1459    1.0000 0.66170  0.04700  0.38110  Biso   1.000  C
  H1391    1.0000 0.67400  0.04950  0.39450  Biso   1.000  H
  H1392    1.0000 0.65890  0.01470  0.37190  Biso   1.000  H
  H1393    1.0000 0.65790  0.07090  0.36410  Biso   1.000  H
  C1460    1.0000 0.63188  0.09380  0.47750  Biso   1.000  C
  H1394    1.0000 0.64050  0.11720  0.48280  Biso   1.000  H
  C1461    1.0000 0.62377  0.09030  0.49700  Biso   1.000  C
  C1462    1.0000 0.62914  0.11830  0.52350  Biso   1.000  C
  H1395    1.0000 0.63830  0.14020  0.52970  Biso   1.000  H
  C1463    1.0000 0.62098  0.11370  0.54090  Biso   1.000  C
  H1396    1.0000 0.62460  0.13190  0.55970  Biso   1.000  H
  C1464    1.0000 0.60767  0.08300  0.53100  Biso   1.000  C
  C1465    1.0000 0.60251  0.05730  0.50380  Biso   1.000  C
  H1397    1.0000 0.59290  0.03690  0.49680  Biso   1.000  H
  C1466    1.0000 0.60188  0.09690  0.57520  Biso   1.000  C
  H1398    1.0000 0.61330  0.08660  0.59160  Biso   1.000  H
  H1399    1.0000 0.60170  0.13240  0.57390  Biso   1.000  H
  C1467    1.0000 0.64361  0.08840  0.81930  Biso   1.000  C
  C1468    1.0000 0.66002  0.09520  0.84160  Biso   1.000  C
  H1400    1.0000 0.66800  0.10310  0.83500  Biso   1.000  H
  C1469    1.0000 0.66540  0.09100  0.87340  Biso   1.000  C
  H1401    1.0000 0.67690  0.09620  0.88850  Biso   1.000  H
  C1470    1.0000 0.65390  0.07920  0.88340  Biso   1.000  C
  C1471    1.0000 0.63750  0.07290  0.86140  Biso   1.000  C
  H1402    1.0000 0.62960  0.06500  0.86830  Biso   1.000  H
  C1472    1.0000 0.63161  0.07750  0.82840  Biso   1.000  C
  H1403    1.0000 0.62000  0.07340  0.81320  Biso   1.000  H
  C1473    1.0000 0.65870  0.07360  0.91890  Biso   1.000  C
  H1404    1.0000 0.66820  0.09500  0.93190  Biso   1.000  H
  H1405    1.0000 0.64890  0.08200  0.92150  Biso   1.000  H
  H1406    1.0000 0.66200  0.04020  0.92560  Biso   1.000  H
  C1474    1.0000 0.62470  0.10750  0.76500  Biso   1.000  C
  H1407    1.0000 0.61740  0.12230  0.77130  Biso   1.000  H
  C1475    1.0000 0.61948  0.10580  0.73120  Biso   1.000  C
  C1476    1.0000 0.60410  0.12190  0.70890  Biso   1.000  C
  H1408    1.0000 0.59650  0.13520  0.71520  Biso   1.000  H
  C1477    1.0000 0.59930  0.11900  0.67680  Biso   1.000  C
  H1409    1.0000 0.58880  0.13160  0.66100  Biso   1.000  H
  C1478    1.0000 0.61048  0.09680  0.66870  Biso   1.000  C
  C1479    1.0000 0.62579  0.07940  0.69290  Biso   1.000  C
  H1410    1.0000 0.63340  0.06440  0.68750  Biso   1.000  H
  C1480    1.0000 0.59125  0.10170  0.61420  Biso   1.000  C
  H1411    1.0000 0.58230  0.09130  0.61900  Biso   1.000  H
  H1412    1.0000 0.59080  0.13720  0.61210  Biso   1.000  H
  C1481    1.0000 0.54760  0.75110  0.60300  Biso   1.000  C
  C1482    1.0000 0.54650  0.72180  0.57940  Biso   1.000  C
  H1413    1.0000 0.54880  0.73440  0.56360  Biso   1.000  H
  C1483    1.0000 0.54220  0.67470  0.57830  Biso   1.000  C
  H1414    1.0000 0.54230  0.65430  0.56270  Biso   1.000  H
  C1484    1.0000 0.53760  0.65630  0.59920  Biso   1.000  C
  C1485    1.0000 0.53850  0.68450  0.62220  Biso   1.000  C
  H1415    1.0000 0.53500  0.67240  0.63660  Biso   1.000  H
  C1486    1.0000 0.54440  0.73190  0.62540  Biso   1.000  C
  H1416    1.0000 0.54610  0.75060  0.64320  Biso   1.000  H
  C1487    1.0000 0.53140  0.60340  0.59490  Biso   1.000  C
  H1417    1.0000 0.53440  0.58960  0.61560  Biso   1.000  H
  H1418    1.0000 0.51910  0.60250  0.58140  Biso   1.000  H
  H1419    1.0000 0.53680  0.58470  0.58510  Biso   1.000  H
  C1488    1.0000 0.56400  0.81250  0.59870  Biso   1.000  C
  H1420    1.0000 0.57040  0.78810  0.59550  Biso   1.000  H
  C1489    1.0000 0.56800  0.86390  0.59720  Biso   1.000  C
  C1490    1.0000 0.58050  0.87520  0.59020  Biso   1.000  C
  H1421    1.0000 0.58640  0.85050  0.58610  Biso   1.000  H
  C1491    1.0000 0.58462  0.92370  0.58930  Biso   1.000  C
  H1422    1.0000 0.59390  0.93240  0.58630  Biso   1.000  H
  C1492    1.0000 0.57489  0.95780  0.59280  Biso   1.000  C
  C1493    1.0000 0.56138  0.94220  0.59750  Biso   1.000  C
  H1423    1.0000 0.55480  0.96590  0.60060  Biso   1.000  H
  C1494    1.0000 0.58984  0.02370  0.58610  Biso   1.000  C
  H1424    1.0000 0.60110  0.01440  0.60370  Biso   1.000  H
  H1425    1.0000 0.58850  0.00960  0.56630  Biso   1.000  H
  C1495    1.0000 0.58835  0.07870  0.58330  Biso   1.000  C
  C1496    1.0000 0.57021  0.09320  0.55720  Biso   1.000  C
  H1426    1.0000 0.56980  0.12800  0.55370  Biso   1.000  H
  H1427    1.0000 0.56750  0.07640  0.53740  Biso   1.000  H
  H1428    1.0000 0.56200  0.08430  0.56400  Biso   1.000  H
  O103     1.0000 0.68824  0.90440  0.85760  Biso   1.000  O
  O104     1.0000 0.71479  0.78010  0.87120  Biso   1.000  O
  O105     1.0000 0.67436  0.76570  0.85670  Biso   1.000  O
  N205     1.0000 0.67750  0.09860  0.78410  Biso   1.000  N
  N206     1.0000 0.67640  0.01200  0.81210  Biso   1.000  N
  N207     1.0000 0.76456  0.64080  0.85740  Biso   1.000  N
  N208     1.0000 0.74158  0.70800  0.85410  Biso   1.000  N
  N209     1.0000 0.61467  0.62960  0.77110  Biso   1.000  N
  N210     1.0000 0.64049  0.68280  0.81830  Biso   1.000  N
  C1497    1.0000 0.67720  0.14740  0.77560  Biso   1.000  C
  C1498    1.0000 0.66420  0.16470  0.74740  Biso   1.000  C
  H1429    1.0000 0.65610  0.14290  0.73280  Biso   1.000  H
  C1499    1.0000 0.66290  0.21360  0.74010  Biso   1.000  C
  H1430    1.0000 0.65380  0.22500  0.72080  Biso   1.000  H
  C1500    1.0000 0.67470  0.24530  0.76090  Biso   1.000  C
  C1501    1.0000 0.68840  0.22750  0.78770  Biso   1.000  C
  H1431    1.0000 0.69680  0.24900  0.80200  Biso   1.000  H
  C1502    1.0000 0.69010  0.17730  0.79430  Biso   1.000  C
  H1432    1.0000 0.70010  0.16480  0.81150  Biso   1.000  H
  C1503    1.0000 0.67450  0.29820  0.75320  Biso   1.000  C
  H1433    1.0000 0.67230  0.31730  0.76790  Biso   1.000  H
  H1434    1.0000 0.68540  0.30730  0.75520  Biso   1.000  H
  H1435    1.0000 0.66550  0.30410  0.73140  Biso   1.000  H
  C1504    1.0000 0.69090  0.07710  0.80390  Biso   1.000  C
  H1436    1.0000 0.70140  0.09260  0.81010  Biso   1.000  H
  C1505    1.0000 0.69127  0.03060  0.81780  Biso   1.000  C
  C1506    1.0000 0.70600  0.00490  0.83370  Biso   1.000  C
  H1437    1.0000 0.71640  0.01710  0.83600  Biso   1.000  H
  C1507    1.0000 0.70540  0.96120  0.84610  Biso   1.000  C
  H1438    1.0000 0.71530  0.94190  0.85640  Biso   1.000  H
  C1508    1.0000 0.69059  0.94540  0.84380  Biso   1.000  C
  C1509    1.0000 0.67631  0.96970  0.82500  Biso   1.000  C
  H1439    1.0000 0.66580  0.95620  0.82070  Biso   1.000  H
  C1510    1.0000 0.70244  0.87300  0.87420  Biso   1.000  C
  H1440    1.0000 0.70780  0.86590  0.86110  Biso   1.000  H
  H1441    1.0000 0.71090  0.88820  0.89420  Biso   1.000  H
  C1511    1.0000 0.77684  0.60520  0.85880  Biso   1.000  C
  C1512    1.0000 0.78730  0.61650  0.84700  Biso   1.000  C
  H1442    1.0000 0.78620  0.64690  0.83730  Biso   1.000  H
  C1513    1.0000 0.79940  0.58460  0.84880  Biso   1.000  C
  H1443    1.0000 0.80700  0.59380  0.84160  Biso   1.000  H
  C1514    1.0000 0.80030  0.53890  0.86120  Biso   1.000  C
  C1515    1.0000 0.78890  0.52670  0.87010  Biso   1.000  C
  H1444    1.0000 0.78870  0.49440  0.87640  Biso   1.000  H
  C1516    1.0000 0.77690  0.55990  0.87050  Biso   1.000  C
  H1445    1.0000 0.76940  0.55130  0.87830  Biso   1.000  H
  C1517    1.0000 0.81300  0.50070  0.86250  Biso   1.000  C
  H1446    1.0000 0.82430  0.50790  0.88010  Biso   1.000  H
  H1447    1.0000 0.80940  0.46880  0.86550  Biso   1.000  H
  H1448    1.0000 0.81340  0.50120  0.84260  Biso   1.000  H
  C1518    1.0000 0.76237  0.64590  0.88150  Biso   1.000  C
  H1449    1.0000 0.76870  0.62670  0.89980  Biso   1.000  H
  C1519    1.0000 0.75016  0.68120  0.88120  Biso   1.000  C
  C1520    1.0000 0.74782  0.68800  0.90670  Biso   1.000  C
  H1450    1.0000 0.75420  0.66960  0.92540  Biso   1.000  H
  C1521    1.0000 0.73618  0.72160  0.90610  Biso   1.000  C
  H1451    1.0000 0.73440  0.72630  0.92370  Biso   1.000  H
  C1522    1.0000 0.72721  0.74800  0.87800  Biso   1.000  C
  C1523    1.0000 0.73035  0.73940  0.85270  Biso   1.000  C
  H1452    1.0000 0.72400  0.75700  0.83360  Biso   1.000  H
  C1524    1.0000 0.71008  0.78990  0.89520  Biso   1.000  C
  H1453    1.0000 0.70630  0.76010  0.90100  Biso   1.000  H
  H1454    1.0000 0.71980  0.80310  0.91440  Biso   1.000  H
  C1525    1.0000 0.59930  0.60770  0.74800  Biso   1.000  C
  C1526    1.0000 0.58450  0.63280  0.72950  Biso   1.000  C
  H1455    1.0000 0.58420  0.66660  0.73180  Biso   1.000  H
  C1527    1.0000 0.57010  0.60800  0.70720  Biso   1.000  C
  H1456    1.0000 0.55990  0.62530  0.69480  Biso   1.000  H
  C1528    1.0000 0.57050  0.55880  0.70330  Biso   1.000  C
  C1529    1.0000 0.58490  0.53470  0.72140  Biso   1.000  C
  H1457    1.0000 0.58540  0.50110  0.71860  Biso   1.000  H
  C1530    1.0000 0.59890  0.55910  0.74450  Biso   1.000  C
  H1458    1.0000 0.60870  0.54100  0.75840  Biso   1.000  H
  C1531    1.0000 0.55460  0.53090  0.67920  Biso   1.000  C
  H1459    1.0000 0.54870  0.54930  0.65950  Biso   1.000  H
  H1460    1.0000 0.55790  0.49950  0.67490  Biso   1.000  H
  H1461    1.0000 0.54690  0.52630  0.68810  Biso   1.000  H
  C1532    1.0000 0.61969  0.66740  0.76400  Biso   1.000  C
  H1462    1.0000 0.61400  0.67820  0.74260  Biso   1.000  H
  C1533    1.0000 0.63412  0.69550  0.78750  Biso   1.000  C
  C1534    1.0000 0.64070  0.73160  0.77800  Biso   1.000  C
  H1463    1.0000 0.63580  0.73950  0.75620  Biso   1.000  H
  C1535    1.0000 0.65450  0.75710  0.80040  Biso   1.000  C
  H1464    1.0000 0.65920  0.78290  0.79430  Biso   1.000  H
  C1536    1.0000 0.66113  0.74420  0.83130  Biso   1.000  C
  C1537    1.0000 0.65315  0.70730  0.83920  Biso   1.000  C
  H1465    1.0000 0.65730  0.70020  0.86100  Biso   1.000  H
  C1538    1.0000 0.68100  0.80880  0.85030  Biso   1.000  C
  H1466    1.0000 0.68490  0.80190  0.83480  Biso   1.000  H
  H1467    1.0000 0.67210  0.83370  0.84120  Biso   1.000  H
  C1539    1.0000 0.69568  0.82670  0.88120  Biso   1.000  C
  C1540    1.0000 0.68941  0.83500  0.90550  Biso   1.000  C
  H1468    1.0000 0.69880  0.84720  0.92530  Biso   1.000  H
  H1469    1.0000 0.68020  0.85860  0.89700  Biso   1.000  H
  H1470    1.0000 0.68530  0.80460  0.90950  Biso   1.000  H
  O106     1.0000 0.65141  0.74960  0.39950  Biso   1.000  O
  O107     1.0000 0.61431  0.84680  0.38340  Biso   1.000  O
  O108     1.0000 0.60255  0.72940  0.37820  Biso   1.000  O
  N211     1.0000 0.72627  0.72420  0.50660  Biso   1.000  N
  N212     1.0000 0.69274  0.71740  0.45930  Biso   1.000  N
  N213     1.0000 0.58424  0.03860  0.40040  Biso   1.000  N
  N214     1.0000 0.60205  0.95690  0.40340  Biso   1.000  N
  N215     1.0000 0.55833  0.64000  0.43170  Biso   1.000  N
  N216     1.0000 0.57326  0.67290  0.39680  Biso   1.000  N
  C1541    1.0000 0.74332  0.72770  0.53050  Biso   1.000  C
  C1542    1.0000 0.75100  0.77120  0.54360  Biso   1.000  C
  H1471    1.0000 0.74490  0.80040  0.53580  Biso   1.000  H
  C1543    1.0000 0.76760  0.77220  0.56790  Biso   1.000  C
  H1472    1.0000 0.77310  0.80220  0.57540  Biso   1.000  H
  C1544    1.0000 0.77610  0.73060  0.58130  Biso   1.000  C
  C1545    1.0000 0.76860  0.68730  0.56790  Biso   1.000  C
  H1473    1.0000 0.77470  0.65820  0.57620  Biso   1.000  H
  C1546    1.0000 0.75201  0.68580  0.54190  Biso   1.000  C
  H1474    1.0000 0.74700  0.65590  0.53260  Biso   1.000  H
  C1547    1.0000 0.79360  0.73060  0.61010  Biso   1.000  C
  H1475    1.0000 0.79810  0.69780  0.61420  Biso   1.000  H
  H1476    1.0000 0.80100  0.75170  0.60620  Biso   1.000  H
  H1477    1.0000 0.79290  0.74230  0.62850  Biso   1.000  H
  C1548    1.0000 0.71921  0.75880  0.48660  Biso   1.000  C
  H1478    1.0000 0.72600  0.78560  0.48760  Biso   1.000  H
  C1549    1.0000 0.70152  0.75880  0.46270  Biso   1.000  C
  C1550    1.0000 0.69380  0.79890  0.44460  Biso   1.000  C
  H1479    1.0000 0.70030  0.82670  0.44650  Biso   1.000  H
  C1551    1.0000 0.67680  0.79890  0.42370  Biso   1.000  C
  H1480    1.0000 0.67120  0.82690  0.41200  Biso   1.000  H
  C1552    1.0000 0.66814  0.75720  0.42050  Biso   1.000  C
  C1553    1.0000 0.67630  0.71770  0.43790  Biso   1.000  C
  H1481    1.0000 0.67000  0.68900  0.43480  Biso   1.000  H
  C1554    1.0000 0.64076  0.79120  0.38550  Biso   1.000  C
  H1482    1.0000 0.64260  0.81500  0.40210  Biso   1.000  H
  H1483    1.0000 0.64350  0.80660  0.37010  Biso   1.000  H
  C1555    1.0000 0.57470  0.08040  0.40040  Biso   1.000  C
  C1556    1.0000 0.58260  0.11910  0.41900  Biso   1.000  C
  H1484    1.0000 0.59460  0.11880  0.43160  Biso   1.000  H
  C1557    1.0000 0.57380  0.15880  0.42020  Biso   1.000  C
  H1485    1.0000 0.57960  0.18490  0.43380  Biso   1.000  H
  C1558    1.0000 0.55630  0.16060  0.40160  Biso   1.000  C
  C1559    1.0000 0.54860  0.12310  0.38240  Biso   1.000  C
  H1486    1.0000 0.53660  0.12410  0.36960  Biso   1.000  H
  C1560    1.0000 0.55730  0.08190  0.38020  Biso   1.000  C
  H1487    1.0000 0.55150  0.05670  0.36570  Biso   1.000  H
  C1561    1.0000 0.54530  0.20090  0.40440  Biso   1.000  C
  H1488    1.0000 0.55260  0.22380  0.42080  Biso   1.000  H
  H1489    1.0000 0.53910  0.21770  0.38400  Biso   1.000  H
  H1490    1.0000 0.53720  0.18680  0.41000  Biso   1.000  H
  C1562    1.0000 0.58000  0.01570  0.37440  Biso   1.000  C
  H1491    1.0000 0.57110  0.02760  0.35490  Biso   1.000  H
  C1563    1.0000 0.58878  0.97120  0.37490  Biso   1.000  C
  C1564    1.0000 0.58470  0.94590  0.34770  Biso   1.000  C
  H1492    1.0000 0.57590  0.95740  0.32810  Biso   1.000  H
  C1565    1.0000 0.59311  0.90390  0.34830  Biso   1.000  C
  H1493    1.0000 0.59060  0.88690  0.32940  Biso   1.000  H
  C1566    1.0000 0.60548  0.88770  0.37790  Biso   1.000  C
  C1567    1.0000 0.60996  0.91610  0.40470  Biso   1.000  C
  H1494    1.0000 0.61890  0.90580  0.42450  Biso   1.000  H
  C1568    1.0000 0.61038  0.81650  0.35620  Biso   1.000  C
  H1495    1.0000 0.59850  0.80530  0.34620  Biso   1.000  H
  H1496    1.0000 0.61210  0.83440  0.34020  Biso   1.000  H
  C1569    1.0000 0.55150  0.62060  0.45070  Biso   1.000  C
  C1570    1.0000 0.56090  0.59860  0.47930  Biso   1.000  C
  H1497    1.0000 0.57280  0.59600  0.48750  Biso   1.000  H
  C1571    1.0000 0.55380  0.58020  0.49660  Biso   1.000  C
  H1498    1.0000 0.56060  0.56520  0.51650  Biso   1.000  H
  C1572    1.0000 0.53630  0.58390  0.48420  Biso   1.000  C
  C1573    1.0000 0.52680  0.60670  0.45640  Biso   1.000  C
  H1499    1.0000 0.51500  0.61120  0.44860  Biso   1.000  H
  C1574    1.0000 0.53450  0.62340  0.43920  Biso   1.000  C
  H1500    1.0000 0.52760  0.63710  0.41880  Biso   1.000  H
  C1575    1.0000 0.52860  0.56320  0.50390  Biso   1.000  C
  H1501    1.0000 0.53750  0.54820  0.52320  Biso   1.000  H
  H1502    1.0000 0.52000  0.53900  0.49140  Biso   1.000  H
  H1503    1.0000 0.52330  0.58910  0.50970  Biso   1.000  H
  C1576    1.0000 0.57350  0.65190  0.44550  Biso   1.000  C
  H1504    1.0000 0.57980  0.64880  0.46790  Biso   1.000  H
  C1577    1.0000 0.58224  0.67030  0.42870  Biso   1.000  C
  C1578    1.0000 0.59861  0.68500  0.44520  Biso   1.000  C
  H1505    1.0000 0.60470  0.68250  0.46760  Biso   1.000  H
  C1579    1.0000 0.60633  0.70350  0.42890  Biso   1.000  C
  H1506    1.0000 0.61790  0.71290  0.43990  Biso   1.000  H
  C1580    1.0000 0.59721  0.70820  0.39700  Biso   1.000  C
  C1581    1.0000 0.58017  0.69260  0.38190  Biso   1.000  C
  H1507    1.0000 0.57350  0.69680  0.35970  Biso   1.000  H
  C1582    1.0000 0.61988  0.74650  0.39360  Biso   1.000  C
  H1508    1.0000 0.62200  0.76790  0.41150  Biso   1.000  H
  H1509    1.0000 0.62780  0.71900  0.40190  Biso   1.000  H
  C1583    1.0000 0.62250  0.77390  0.36890  Biso   1.000  C
  C1584    1.0000 0.61910  0.74030  0.34030  Biso   1.000  C
  H1510    1.0000 0.62670  0.71250  0.34800  Biso   1.000  H
  H1511    1.0000 0.60730  0.72910  0.33010  Biso   1.000  H
  H1512    1.0000 0.62100  0.75820  0.32490  Biso   1.000  H
  O109     1.0000 0.52122  0.87070  0.47490  Biso   1.000  O
  O110     1.0000 0.52697  0.81060  0.40340  Biso   1.000  O
  O111     1.0000 0.55330  0.90640  0.44140  Biso   1.000  O
  N217     1.0000 0.51170  0.80760  0.58890  Biso   1.000  N
  N218     1.0000 0.52086  0.84360  0.54640  Biso   1.000  N
  N219     1.0000 0.53902  0.65630  0.32370  Biso   1.000  N
  N220     1.0000 0.53341  0.71100  0.36500  Biso   1.000  N
  N221     1.0000 0.62826  0.96240  0.49060  Biso   1.000  N
  N222     1.0000 0.59363  0.95270  0.46190  Biso   1.000  N
  C1585    1.0000 0.50660  0.79340  0.61110  Biso   1.000  C
  C1586    1.0000 0.50190  0.74730  0.61280  Biso   1.000  C
  H1513    1.0000 0.50190  0.72400  0.59840  Biso   1.000  H
  C1587    1.0000 0.49710  0.73350  0.63490  Biso   1.000  C
  H1514    1.0000 0.49430  0.70100  0.63610  Biso   1.000  H
  C1588    1.0000 0.49650  0.76730  0.65500  Biso   1.000  C
  C1589    1.0000 0.50080  0.81380  0.65220  Biso   1.000  C
  H1515    1.0000 0.50150  0.83680  0.66730  Biso   1.000  H
  C1590    1.0000 0.50440  0.82990  0.62760  Biso   1.000  C
  H1516    1.0000 0.50520  0.86280  0.62340  Biso   1.000  H
  C1591    1.0000 0.49140  0.75230  0.67950  Biso   1.000  C
  H1517    1.0000 0.49870  0.76850  0.69960  Biso   1.000  H
  H1518    1.0000 0.47960  0.76140  0.67210  Biso   1.000  H
  H1519    1.0000 0.49260  0.71740  0.68260  Biso   1.000  H
  C1592    1.0000 0.50550  0.78930  0.56090  Biso   1.000  C
  H1520    1.0000 0.49800  0.76300  0.55560  Biso   1.000  H
  C1593    1.0000 0.50960  0.80710  0.53720  Biso   1.000  C
  C1594    1.0000 0.50160  0.79040  0.50690  Biso   1.000  C
  H1521    1.0000 0.49320  0.76600  0.50100  Biso   1.000  H
  C1595    1.0000 0.50550  0.80850  0.48510  Biso   1.000  C
  H1522    1.0000 0.50090  0.79510  0.46440  Biso   1.000  H
  C1596    1.0000 0.51636  0.84640  0.49390  Biso   1.000  C
  C1597    1.0000 0.52460  0.86050  0.52470  Biso   1.000  C
  H1523    1.0000 0.53340  0.88340  0.53110  Biso   1.000  H
  C1598    1.0000 0.51590  0.85250  0.44330  Biso   1.000  C
  H1524    1.0000 0.51850  0.81770  0.44400  Biso   1.000  H
  H1525    1.0000 0.50350  0.85710  0.42960  Biso   1.000  H
  C1599    1.0000 0.54360  0.62730  0.30410  Biso   1.000  C
  C1600    1.0000 0.54180  0.57900  0.30410  Biso   1.000  C
  H1526    1.0000 0.53770  0.56450  0.31680  Biso   1.000  H
  C1601    1.0000 0.54610  0.55090  0.28550  Biso   1.000  C
  H1527    1.0000 0.54460  0.51700  0.28520  Biso   1.000  H
  C1602    1.0000 0.55250  0.57100  0.26710  Biso   1.000  C
  C1603    1.0000 0.55340  0.61860  0.26570  Biso   1.000  C
  H1528    1.0000 0.55750  0.63250  0.25270  Biso   1.000  H
  C1604    1.0000 0.54830  0.64890  0.28360  Biso   1.000  C
  H1529    1.0000 0.54820  0.68290  0.28140  Biso   1.000  H
  C1605    1.0000 0.55760  0.53830  0.24730  Biso   1.000  C
  H1530    1.0000 0.54750  0.52410  0.22970  Biso   1.000  H
  H1531    1.0000 0.56360  0.55750  0.23890  Biso   1.000  H
  H1532    1.0000 0.56510  0.51260  0.26080  Biso   1.000  H
  C1606    1.0000 0.53210  0.69790  0.31500  Biso   1.000  C
  H1533    1.0000 0.52850  0.70800  0.29390  Biso   1.000  H
  C1607    1.0000 0.52950  0.73030  0.33600  Biso   1.000  C
  C1608    1.0000 0.52230  0.77450  0.32660  Biso   1.000  C
  H1534    1.0000 0.51830  0.78490  0.30540  Biso   1.000  H
  C1609    1.0000 0.52060  0.80450  0.34840  Biso   1.000  C
  H1535    1.0000 0.51560  0.83540  0.34230  Biso   1.000  H
  C1610    1.0000 0.52650  0.78780  0.37870  Biso   1.000  C
  C1611    1.0000 0.53270  0.74050  0.38620  Biso   1.000  C
  H1536    1.0000 0.53650  0.72900  0.40710  Biso   1.000  H
  C1612    1.0000 0.52200  0.86030  0.39890  Biso   1.000  C
  H1537    1.0000 0.52840  0.87820  0.39050  Biso   1.000  H
  H1538    1.0000 0.50980  0.86310  0.38350  Biso   1.000  H
  C1613    1.0000 0.64600  0.97290  0.50570  Biso   1.000  C
  C1614    1.0000 0.65432  0.99470  0.53460  Biso   1.000  C
  H1539    1.0000 0.64870  0.99980  0.54660  Biso   1.000  H
  C1615    1.0000 0.67064  0.00920  0.54620  Biso   1.000  C
  H1540    1.0000 0.67610  0.02540  0.56600  Biso   1.000  H
  C1616    1.0000 0.67949  0.00110  0.52980  Biso   1.000  C
  C1617    1.0000 0.67132  0.98000  0.50120  Biso   1.000  C
  H1541    1.0000 0.67700  0.97410  0.48940  Biso   1.000  H
  C1618    1.0000 0.65436  0.96670  0.48870  Biso   1.000  C
  H1542    1.0000 0.64850  0.95310  0.46810  Biso   1.000  H
  C1619    1.0000 0.69788  0.01670  0.54410  Biso   1.000  C
  H1543    1.0000 0.70070  0.03790  0.56220  Biso   1.000  H
  H1544    1.0000 0.70520  0.98830  0.55120  Biso   1.000  H
  H1545    1.0000 0.69950  0.03400  0.52820  Biso   1.000  H
  C1620    1.0000 0.62196  0.93980  0.50420  Biso   1.000  C
  H1546    1.0000 0.62930  0.92740  0.52470  Biso   1.000  H
  C1621    1.0000 0.60372  0.93120  0.49030  Biso   1.000  C
  C1622    1.0000 0.59734  0.89980  0.50360  Biso   1.000  C
  H1547    1.0000 0.60460  0.88490  0.52330  Biso   1.000  H
  C1623    1.0000 0.58010  0.88980  0.48820  Biso   1.000  C
  H1548    1.0000 0.57550  0.86720  0.49670  Biso   1.000  H
  C1624    1.0000 0.57010  0.91300  0.46070  Biso   1.000  C
  C1625    1.0000 0.57763  0.94360  0.44830  Biso   1.000  C
  H1549    1.0000 0.57050  0.95860  0.42860  Biso   1.000  H
  C1626    1.0000 0.54442  0.87800  0.45410  Biso   1.000  C
  H1550    1.0000 0.54820  0.84410  0.45680  Biso   1.000  H
  H1551    1.0000 0.54680  0.89080  0.47490  Biso   1.000  H
  C1627    1.0000 0.52563  0.88100  0.43080  Biso   1.000  C
  C1628    1.0000 0.51930  0.93340  0.42390  Biso   1.000  C
  H1552    1.0000 0.52140  0.94910  0.44370  Biso   1.000  H
  H1553    1.0000 0.52540  0.95080  0.41490  Biso   1.000  H
  H1554    1.0000 0.50720  0.93380  0.40890  Biso   1.000  H
  O112     1.0000 0.59481  0.80190  0.80870  Biso   1.000  O
  O113     1.0000 0.56920  0.88690  0.73200  Biso   1.000  O
  O114     1.0000 0.60928  0.92180  0.77820  Biso   1.000  O
  N223     1.0000 0.60128  0.57780  0.81760  Biso   1.000  N
  N224     1.0000 0.60437  0.67800  0.81920  Biso   1.000  N
  N225     1.0000 0.51766  0.93130  0.59160  Biso   1.000  N
  N226     1.0000 0.54223  0.89750  0.64950  Biso   1.000  N
  N227     1.0000 0.66257  0.99120  0.74100  Biso   1.000  N
  N228     1.0000 0.63929  0.97690  0.76100  Biso   1.000  N
  C1629    1.0000 0.60020  0.52760  0.82150  Biso   1.000  C
  C1630    1.0000 0.58844  0.50750  0.82840  Biso   1.000  C
  H1555    1.0000 0.58050  0.52720  0.83070  Biso   1.000  H
  C1631    1.0000 0.58840  0.45770  0.83180  Biso   1.000  C
  H1556    1.0000 0.58060  0.44400  0.83740  Biso   1.000  H
  C1632    1.0000 0.59900  0.42790  0.82760  Biso   1.000  C
  C1633    1.0000 0.61070  0.44750  0.82010  Biso   1.000  C
  H1557    1.0000 0.61810  0.42750  0.81660  Biso   1.000  H
  C1634    1.0000 0.61130  0.49820  0.81790  Biso   1.000  C
  H1558    1.0000 0.61960  0.51220  0.81380  Biso   1.000  H
  C1635    1.0000 0.59910  0.37390  0.83220  Biso   1.000  C
  H1559    1.0000 0.60540  0.36640  0.85490  Biso   1.000  H
  H1560    1.0000 0.58740  0.36240  0.82340  Biso   1.000  H
  H1561    1.0000 0.60450  0.35800  0.82130  Biso   1.000  H
  C1636    1.0000 0.58847  0.60510  0.80800  Biso   1.000  C
  H1562    1.0000 0.57780  0.59040  0.80080  Biso   1.000  H
  C1637    1.0000 0.58903  0.65760  0.80710  Biso   1.000  C
  C1638    1.0000 0.57476  0.68460  0.79480  Biso   1.000  C
  H1563    1.0000 0.56410  0.66920  0.78670  Biso   1.000  H
  C1639    1.0000 0.57549  0.73400  0.79380  Biso   1.000  C
  H1564    1.0000 0.56560  0.75330  0.78460  Biso   1.000  H
  C1640    1.0000 0.59145  0.75360  0.80710  Biso   1.000  C
  C1641    1.0000 0.60525  0.72520  0.81900  Biso   1.000  C
  H1565    1.0000 0.61610  0.73990  0.82760  Biso   1.000  H
  C1642    1.0000 0.58104  0.83180  0.78740  Biso   1.000  C
  H1566    1.0000 0.57540  0.81770  0.76590  Biso   1.000  H
  H1567    1.0000 0.57260  0.83490  0.79470  Biso   1.000  H
  C1643    1.0000 0.50440  0.94890  0.56130  Biso   1.000  C
  C1644    1.0000 0.49170  0.91930  0.54130  Biso   1.000  C
  H1568    1.0000 0.49180  0.88670  0.54710  Biso   1.000  H
  C1645    1.0000 0.47870  0.93530  0.51260  Biso   1.000  C
  H1569    1.0000 0.46970  0.91410  0.49970  Biso   1.000  H
  C1646    1.0000 0.47860  0.98170  0.50280  Biso   1.000  C
  C1647    1.0000 0.49170  0.01040  0.52140  Biso   1.000  C
  H1570    1.0000 0.49240  0.04120  0.51360  Biso   1.000  H
  C1648    1.0000 0.50470  0.99670  0.55240  Biso   1.000  C
  H1571    1.0000 0.51300  0.01890  0.56610  Biso   1.000  H
  C1649    1.0000 0.46490  0.00020  0.47000  Biso   1.000  C
  H1572    1.0000 0.45520  0.01230  0.47170  Biso   1.000  H
  H1573    1.0000 0.46960  0.02620  0.46300  Biso   1.000  H
  H1574    1.0000 0.46120  0.97380  0.45470  Biso   1.000  H
  C1650    1.0000 0.52150  0.95650  0.61640  Biso   1.000  C
  H1575    1.0000 0.51600  0.98630  0.61420  Biso   1.000  H
  C1651    1.0000 0.53430  0.94070  0.64780  Biso   1.000  C
  C1652    1.0000 0.53750  0.96700  0.67400  Biso   1.000  C
  H1576    1.0000 0.53140  0.99590  0.67150  Biso   1.000  H
  C1653    1.0000 0.54950  0.95280  0.70430  Biso   1.000  C
  H1577    1.0000 0.55210  0.97130  0.72270  Biso   1.000  H
  C1654    1.0000 0.55750  0.90870  0.70560  Biso   1.000  C
  C1655    1.0000 0.55350  0.88250  0.67810  Biso   1.000  C
  H1578    1.0000 0.55920  0.85280  0.68000  Biso   1.000  H
  C1656    1.0000 0.57424  0.91160  0.76170  Biso   1.000  C
  H1579    1.0000 0.57820  0.94460  0.76110  Biso   1.000  H
  H1580    1.0000 0.56470  0.91360  0.76610  Biso   1.000  H
  C1657    1.0000 0.67698  0.99760  0.73660  Biso   1.000  C
  C1658    1.0000 0.69030  0.96690  0.74880  Biso   1.000  C
  H1581    1.0000 0.68970  0.93830  0.75890  Biso   1.000  H
  C1659    1.0000 0.70470  0.97650  0.74670  Biso   1.000  C
  H1582    1.0000 0.71410  0.95510  0.75610  Biso   1.000  H
  C1660    1.0000 0.70560  0.01720  0.73100  Biso   1.000  C
  C1661    1.0000 0.69280  0.04800  0.72080  Biso   1.000  C
  H1583    1.0000 0.69360  0.07770  0.71180  Biso   1.000  H
  C1662    1.0000 0.67830  0.03830  0.72280  Biso   1.000  C
  H1584    1.0000 0.66920  0.06060  0.71430  Biso   1.000  H
  C1663    1.0000 0.72130  0.02860  0.72740  Biso   1.000  C
  H1585    1.0000 0.73150  0.01730  0.74620  Biso   1.000  H
  H1586    1.0000 0.72020  0.01240  0.70850  Biso   1.000  H
  H1587    1.0000 0.72200  0.06340  0.72520  Biso   1.000  H
  C1664    1.0000 0.65670  0.94950  0.73950  Biso   1.000  C
  H1588    1.0000 0.65990  0.92440  0.73010  Biso   1.000  H
  C1665    1.0000 0.64510  0.93890  0.75170  Biso   1.000  C
  C1666    1.0000 0.63910  0.89330  0.75060  Biso   1.000  C
  H1589    1.0000 0.64310  0.86750  0.74310  Biso   1.000  H
  C1667    1.0000 0.62730  0.88480  0.76030  Biso   1.000  C
  H1590    1.0000 0.62350  0.85310  0.76080  Biso   1.000  H
  C1668    1.0000 0.62132  0.92330  0.76920  Biso   1.000  C
  C1669    1.0000 0.62764  0.96880  0.76850  Biso   1.000  C
  H1591    1.0000 0.62300  0.99560  0.77380  Biso   1.000  H
  C1670    1.0000 0.60275  0.87460  0.77950  Biso   1.000  C
  H1592    1.0000 0.59850  0.85800  0.75890  Biso   1.000  H
  H1593    1.0000 0.61180  0.85470  0.79610  Biso   1.000  H
  C1671    1.0000 0.58865  0.88170  0.78720  Biso   1.000  C
  C1672    1.0000 0.59400  0.90760  0.81950  Biso   1.000  C
  H1594    1.0000 0.60180  0.88700  0.83690  Biso   1.000  H
  H1595    1.0000 0.59960  0.93810  0.82010  Biso   1.000  H
  H1596    1.0000 0.58390  0.91390  0.82160  Biso   1.000  H
  O115     1.0000 0.66749  0.50040  0.80520  Biso   1.000  O
  O116     1.0000 0.66677  0.43730  0.72760  Biso   1.000  O
  O117     1.0000 0.69801  0.54200  0.78540  Biso   1.000  O
  N229     1.0000 0.64337  0.62520  0.88240  Biso   1.000  N
  N230     1.0000 0.64790  0.56920  0.84000  Biso   1.000  N
  N231     1.0000 0.62545  0.32040  0.60290  Biso   1.000  N
  N232     1.0000 0.64622  0.38100  0.65270  Biso   1.000  N
  N233     1.0000 0.72759  0.74060  0.77440  Biso   1.000  N
  N234     1.0000 0.72050  0.64840  0.78760  Biso   1.000  N
  C1673    1.0000 0.64029  0.65400  0.90340  Biso   1.000  C
  C1674    1.0000 0.65301  0.67840  0.92860  Biso   1.000  C
  H1597    1.0000 0.66430  0.67600  0.93240  Biso   1.000  H
  C1675    1.0000 0.64942  0.70650  0.94840  Biso   1.000  C
  H1598    1.0000 0.65830  0.72260  0.96590  Biso   1.000  H
  C1676    1.0000 0.63325  0.71100  0.94300  Biso   1.000  C
  C1677    1.0000 0.62042  0.68760  0.91750  Biso   1.000  C
  H1599    1.0000 0.60910  0.69110  0.91320  Biso   1.000  H
  C1678    1.0000 0.62405  0.65830  0.89730  Biso   1.000  C
  H1600    1.0000 0.61520  0.64210  0.87980  Biso   1.000  H
  C1679    1.0000 0.62920  0.74240  0.96400  Biso   1.000  C
  H1601    1.0000 0.63420  0.77430  0.96600  Biso   1.000  H
  H1602    1.0000 0.61690  0.74550  0.95470  Biso   1.000  H
  H1603    1.0000 0.63380  0.72770  0.98510  Biso   1.000  H
  C1680    1.0000 0.65678  0.60010  0.89210  Biso   1.000  C
  H1604    1.0000 0.66490  0.60070  0.91400  Biso   1.000  H
  C1681    1.0000 0.66010  0.57080  0.87090  Biso   1.000  C
  C1682    1.0000 0.67528  0.54760  0.88180  Biso   1.000  C
  H1605    1.0000 0.68360  0.54980  0.90350  Biso   1.000  H
  C1683    1.0000 0.67840  0.52090  0.86110  Biso   1.000  C
  H1606    1.0000 0.68840  0.50220  0.86830  Biso   1.000  H
  C1684    1.0000 0.66651  0.52260  0.82970  Biso   1.000  C
  C1685    1.0000 0.65140  0.54440  0.82040  Biso   1.000  C
  H1607    1.0000 0.64290  0.54180  0.79890  Biso   1.000  H
  C1686    1.0000 0.68277  0.47630  0.81160  Biso   1.000  C
  H1608    1.0000 0.69270  0.49570  0.82600  Biso   1.000  H
  H1609    1.0000 0.68350  0.44470  0.82160  Biso   1.000  H
  C1687    1.0000 0.61496  0.28830  0.57690  Biso   1.000  C
  C1688    1.0000 0.59920  0.27390  0.57060  Biso   1.000  C
  H1610    1.0000 0.59420  0.28750  0.58220  Biso   1.000  H
  C1689    1.0000 0.59030  0.24000  0.54760  Biso   1.000  C
  H1611    1.0000 0.58020  0.22620  0.54590  Biso   1.000  H
  C1690    1.0000 0.59620  0.22610  0.52690  Biso   1.000  C
  C1691    1.0000 0.61150  0.24080  0.53270  Biso   1.000  C
  H1612    1.0000 0.61560  0.23080  0.51890  Biso   1.000  H
  C1692    1.0000 0.62190  0.27110  0.55920  Biso   1.000  C
  H1613    1.0000 0.63320  0.27890  0.56430  Biso   1.000  H
  C1693    1.0000 0.58520  0.19300  0.49850  Biso   1.000  C
  H1614    1.0000 0.58290  0.16300  0.50620  Biso   1.000  H
  H1615    1.0000 0.57460  0.20930  0.48430  Biso   1.000  H
  H1616    1.0000 0.59130  0.18590  0.48690  Biso   1.000  H
  C1694    1.0000 0.62390  0.32200  0.62770  Biso   1.000  C
  H1617    1.0000 0.61540  0.30270  0.62840  Biso   1.000  H
  C1695    1.0000 0.63460  0.35220  0.65540  Biso   1.000  C
  C1696    1.0000 0.63220  0.35500  0.68110  Biso   1.000  C
  H1618    1.0000 0.62290  0.33880  0.68080  Biso   1.000  H
  C1697    1.0000 0.64310  0.38110  0.70780  Biso   1.000  C
  H1619    1.0000 0.64250  0.37960  0.72680  Biso   1.000  H
  C1698    1.0000 0.65501  0.40930  0.70530  Biso   1.000  C
  C1699    1.0000 0.65634  0.40690  0.67770  Biso   1.000  C
  H1620    1.0000 0.66500  0.42500  0.67680  Biso   1.000  H
  C1700    1.0000 0.66654  0.44170  0.75750  Biso   1.000  C
  H1621    1.0000 0.65620  0.45900  0.75420  Biso   1.000  H
  H1622    1.0000 0.66670  0.40950  0.76630  Biso   1.000  H
  C1701    1.0000 0.73170  0.78450  0.76400  Biso   1.000  C
  C1702    1.0000 0.73070  0.78710  0.73500  Biso   1.000  C
  H1623    1.0000 0.72680  0.76030  0.72110  Biso   1.000  H
  C1703    1.0000 0.73530  0.82860  0.72600  Biso   1.000  C
  H1624    1.0000 0.73430  0.83050  0.70550  Biso   1.000  H
  C1704    1.0000 0.74140  0.86790  0.74620  Biso   1.000  C
  C1705    1.0000 0.74170  0.86560  0.77410  Biso   1.000  C
  H1625    1.0000 0.74510  0.89290  0.78760  Biso   1.000  H
  C1706    1.0000 0.73690  0.82350  0.78350  Biso   1.000  C
  H1626    1.0000 0.73740  0.82210  0.80350  Biso   1.000  H
  C1707    1.0000 0.74630  0.91500  0.73520  Biso   1.000  C
  H1627    1.0000 0.75680  0.91010  0.73460  Biso   1.000  H
  H1628    1.0000 0.73720  0.92360  0.71390  Biso   1.000  H
  H1629    1.0000 0.74780  0.94100  0.75000  Biso   1.000  H
  C1708    1.0000 0.71367  0.72150  0.75610  Biso   1.000  C
  H1630    1.0000 0.70590  0.73840  0.73760  Biso   1.000  H
  C1709    1.0000 0.70894  0.67350  0.76230  Biso   1.000  C
  C1710    1.0000 0.69320  0.65540  0.74440  Biso   1.000  C
  H1631    1.0000 0.68520  0.67400  0.72710  Biso   1.000  H
  C1711    1.0000 0.68840  0.61050  0.75010  Biso   1.000  C
  H1632    1.0000 0.67750  0.59730  0.73670  Biso   1.000  H
  C1712    1.0000 0.70030  0.58640  0.77630  Biso   1.000  C
  C1713    1.0000 0.71619  0.60710  0.79390  Biso   1.000  C
  H1633    1.0000 0.72440  0.58990  0.81180  Biso   1.000  H
  C1714    1.0000 0.68164  0.51930  0.76530  Biso   1.000  C
  H1634    1.0000 0.67240  0.53900  0.76470  Biso   1.000  H
  H1635    1.0000 0.67970  0.51570  0.74340  Biso   1.000  H
  C1715    1.0000 0.68222  0.46970  0.77980  Biso   1.000  C
  C1716    1.0000 0.69816  0.44230  0.78520  Biso   1.000  C
  H1636    1.0000 0.69760  0.40920  0.79150  Biso   1.000  H
  H1637    1.0000 0.69880  0.44220  0.76550  Biso   1.000  H
  H1638    1.0000 0.70820  0.45820  0.80190  Biso   1.000  H
  O118     1.0000 0.63593  0.44200  0.48490  Biso   1.000  O
  O119     1.0000 0.59933  0.51070  0.40770  Biso   1.000  O
  O120     1.0000 0.64987  0.54150  0.46170  Biso   1.000  O
  N235     1.0000 0.66443  0.31970  0.60840  Biso   1.000  N
  N236     1.0000 0.64710  0.37800  0.55610  Biso   1.000  N
  N237     1.0000 0.52611  0.57690  0.36670  Biso   1.000  N
  N238     1.0000 0.55914  0.56310  0.38200  Biso   1.000  N
  N239     1.0000 0.69613  0.71860  0.52630  Biso   1.000  N
  N240     1.0000 0.67964  0.63670  0.49330  Biso   1.000  N
  C1717    1.0000 0.67132  0.28570  0.63340  Biso   1.000  C
  C1718    1.0000 0.67050  0.23780  0.62710  Biso   1.000  C
  H1639    1.0000 0.66540  0.22730  0.60570  Biso   1.000  H
  C1719    1.0000 0.67700  0.20380  0.65110  Biso   1.000  C
  H1640    1.0000 0.67660  0.17060  0.64610  Biso   1.000  H
  C1720    1.0000 0.68400  0.21820  0.68240  Biso   1.000  C
  C1721    1.0000 0.68500  0.26670  0.68850  Biso   1.000  C
  H1641    1.0000 0.69050  0.27750  0.70980  Biso   1.000  H
  C1722    1.0000 0.67800  0.30120  0.66330  Biso   1.000  C
  H1642    1.0000 0.67810  0.33450  0.66780  Biso   1.000  H
  C1723    1.0000 0.69100  0.18010  0.70760  Biso   1.000  C
  H1643    1.0000 0.69590  0.19530  0.72850  Biso   1.000  H
  H1644    1.0000 0.68200  0.15820  0.70500  Biso   1.000  H
  H1645    1.0000 0.69980  0.16200  0.70580  Biso   1.000  H
  C1724    1.0000 0.66660  0.31490  0.58420  Biso   1.000  C
  H1646    1.0000 0.67400  0.29050  0.58460  Biso   1.000  H
  C1725    1.0000 0.65826  0.34520  0.55630  Biso   1.000  C
  C1726    1.0000 0.66271  0.34340  0.53310  Biso   1.000  C
  H1647    1.0000 0.67060  0.32010  0.53410  Biso   1.000  H
  C1727    1.0000 0.65564  0.37560  0.50790  Biso   1.000  C
  H1648    1.0000 0.65880  0.37590  0.49190  Biso   1.000  H
  C1728    1.0000 0.64383  0.40690  0.50750  Biso   1.000  C
  C1729    1.0000 0.64010  0.40760  0.53160  Biso   1.000  C
  H1649    1.0000 0.63210  0.43050  0.53080  Biso   1.000  H
  C1730    1.0000 0.63905  0.44250  0.45800  Biso   1.000  C
  H1650    1.0000 0.65110  0.44920  0.46520  Biso   1.000  H
  H1651    1.0000 0.63610  0.41110  0.44700  Biso   1.000  H
  C1731    1.0000 0.50850  0.58550  0.35700  Biso   1.000  C
  C1732    1.0000 0.49980  0.61860  0.33420  Biso   1.000  C
  H1652    1.0000 0.50520  0.63430  0.32420  Biso   1.000  H
  C1733    1.0000 0.48330  0.63010  0.32520  Biso   1.000  C
  H1653    1.0000 0.47800  0.65620  0.31110  Biso   1.000  H
  C1734    1.0000 0.47450  0.60390  0.33660  Biso   1.000  C
  C1735    1.0000 0.48280  0.56910  0.35790  Biso   1.000  C
  H1654    1.0000 0.47660  0.55030  0.36520  Biso   1.000  H
  C1736    1.0000 0.50040  0.55880  0.37020  Biso   1.000  C
  H1655    1.0000 0.50610  0.53540  0.38630  Biso   1.000  H
  C1737    1.0000 0.45620  0.61740  0.32800  Biso   1.000  C
  H1656    1.0000 0.45480  0.61440  0.34680  Biso   1.000  H
  H1657    1.0000 0.45400  0.65070  0.32030  Biso   1.000  H
  H1658    1.0000 0.44830  0.59580  0.31140  Biso   1.000  H
  C1738    1.0000 0.53247  0.53480  0.37450  Biso   1.000  C
  H1659    1.0000 0.52560  0.50940  0.37500  Biso   1.000  H
  C1739    1.0000 0.54998  0.52400  0.38270  Biso   1.000  C
  C1740    1.0000 0.55697  0.47930  0.39290  Biso   1.000  C
  H1660    1.0000 0.55020  0.45360  0.39330  Biso   1.000  H
  C1741    1.0000 0.57393  0.47170  0.40260  Biso   1.000  C
  H1661    1.0000 0.57920  0.44180  0.41120  Biso   1.000  H
  C1742    1.0000 0.58296  0.51010  0.39920  Biso   1.000  C
  C1743    1.0000 0.57520  0.55560  0.38970  Biso   1.000  C
  H1662    1.0000 0.58170  0.58180  0.38870  Biso   1.000  H
  C1744    1.0000 0.60962  0.47060  0.42610  Biso   1.000  C
  H1663    1.0000 0.60830  0.46550  0.44500  Biso   1.000  H
  H1664    1.0000 0.60610  0.44080  0.41320  Biso   1.000  H
  C1745    1.0000 0.70370  0.76420  0.54100  Biso   1.000  C
  C1746    1.0000 0.69600  0.80710  0.52850  Biso   1.000  C
  H1665    1.0000 0.68520  0.80730  0.51020  Biso   1.000  H
  C1747    1.0000 0.70360  0.84980  0.54190  Biso   1.000  C
  H1666    1.0000 0.69800  0.87920  0.53290  Biso   1.000  H
  C1748    1.0000 0.71950  0.85060  0.56850  Biso   1.000  C
  C1749    1.0000 0.72700  0.80880  0.58060  Biso   1.000  C
  H1667    1.0000 0.73780  0.80870  0.59920  Biso   1.000  H
  C1750    1.0000 0.71950  0.76480  0.56650  Biso   1.000  C
  H1668    1.0000 0.72550  0.73550  0.57470  Biso   1.000  H
  C1751    1.0000 0.72810  0.89950  0.58310  Biso   1.000  C
  H1669    1.0000 0.73260  0.89860  0.60610  Biso   1.000  H
  H1670    1.0000 0.73730  0.90530  0.57850  Biso   1.000  H
  H1671    1.0000 0.71970  0.92550  0.57400  Biso   1.000  H
  C1752    1.0000 0.68066  0.71300  0.51820  Biso   1.000  C
  H1672    1.0000 0.67480  0.73800  0.52210  Biso   1.000  H
  C1753    1.0000 0.67167  0.66880  0.50270  Biso   1.000  C
  C1754    1.0000 0.65615  0.66120  0.49770  Biso   1.000  C
  H1673    1.0000 0.65100  0.68390  0.50500  Biso   1.000  H
  C1755    1.0000 0.64720  0.61970  0.48160  Biso   1.000  C
  H1674    1.0000 0.63570  0.61550  0.47600  Biso   1.000  H
  C1756    1.0000 0.65567  0.58570  0.47440  Biso   1.000  C
  C1757    1.0000 0.67214  0.59640  0.48050  Biso   1.000  C
  H1675    1.0000 0.67800  0.57330  0.47500  Biso   1.000  H
  C1758    1.0000 0.63263  0.53100  0.45290  Biso   1.000  C
  H1676    1.0000 0.63120  0.53000  0.47200  Biso   1.000  H
  H1677    1.0000 0.62510  0.55630  0.43860  Biso   1.000  H
  C1759    1.0000 0.62793  0.48220  0.43610  Biso   1.000  C
  C1760    1.0000 0.63050  0.48350  0.40650  Biso   1.000  C
  H1678    1.0000 0.64230  0.49190  0.41310  Biso   1.000  H
  H1679    1.0000 0.62800  0.45190  0.39640  Biso   1.000  H
  H1680    1.0000 0.62300  0.50760  0.39150  Biso   1.000  H
  Cd41     1.0000 0.20672  0.16431  0.50227  Biso   1.000  Cd
  Cd42     1.0000 0.10745  0.50795  0.44595  Biso   1.000  Cd
  Cd43     1.0000 0.15402  0.54839  0.76639  Biso   1.000  Cd
  Cd44     1.0000 0.24745  0.18805  0.81421  Biso   1.000  Cd
  Cd45     1.0000 0.14423  0.87868  0.60242  Biso   1.000  Cd
  Cd46     1.0000 0.04602  0.13650  0.37549  Biso   1.000  Cd
  Cd47     1.0000 0.03378  0.36298  0.60051  Biso   1.000  Cd
  Cd48     1.0000 0.12556  0.12111  0.82716  Biso   1.000  Cd
  O121     1.0000 0.22514  0.06300  0.61440  Biso   1.000  O
  O122     1.0000 0.23892  0.08460  0.70860  Biso   1.000  O
  O123     1.0000 0.20174  0.99750  0.64400  Biso   1.000  O
  N241     1.0000 0.21586  0.10430  0.48040  Biso   1.000  N
  N242     1.0000 0.21932  0.10410  0.54030  Biso   1.000  N
  N243     1.0000 0.26901  0.23950  0.81580  Biso   1.000  N
  N244     1.0000 0.25343  0.16370  0.77480  Biso   1.000  N
  N245     1.0000 0.12548  0.94380  0.58750  Biso   1.000  N
  N246     1.0000 0.16040  0.95040  0.61520  Biso   1.000  N
  C1761    1.0000 0.21540  0.10660  0.45080  Biso   1.000  C
  C1762    1.0000 0.22950  0.09740  0.44790  Biso   1.000  C
  H1681    1.0000 0.24000  0.09030  0.46610  Biso   1.000  H
  C1763    1.0000 0.22840  0.09830  0.41830  Biso   1.000  C
  H1682    1.0000 0.23780  0.08800  0.41620  Biso   1.000  H
  C1764    1.0000 0.21410  0.11360  0.39190  Biso   1.000  C
  C1765    1.0000 0.20020  0.12270  0.39500  Biso   1.000  C
  H1683    1.0000 0.18990  0.13010  0.37660  Biso   1.000  H
  C1766    1.0000 0.20080  0.12140  0.42490  Biso   1.000  C
  H1684    1.0000 0.19130  0.13050  0.42690  Biso   1.000  H
  C1767    1.0000 0.21410  0.12410  0.36100  Biso   1.000  C
  H1685    1.0000 0.21630  0.15830  0.36000  Biso   1.000  H
  H1686    1.0000 0.22280  0.10480  0.35990  Biso   1.000  H
  H1687    1.0000 0.20300  0.11580  0.34320  Biso   1.000  H
  C1768    1.0000 0.22310  0.06870  0.49860  Biso   1.000  C
  H1688    1.0000 0.22720  0.04300  0.49140  Biso   1.000  H
  C1769    1.0000 0.22510  0.06660  0.53050  Biso   1.000  C
  C1770    1.0000 0.23190  0.02690  0.54900  Biso   1.000  C
  H1689    1.0000 0.23600  0.00100  0.54170  Biso   1.000  H
  C1771    1.0000 0.23270  0.02450  0.57830  Biso   1.000  C
  H1690    1.0000 0.23740  0.99720  0.59160  Biso   1.000  H
  C1772    1.0000 0.22670  0.06230  0.58760  Biso   1.000  C
  C1773    1.0000 0.22010  0.10100  0.56860  Biso   1.000  C
  H1691    1.0000 0.21600  0.12700  0.57560  Biso   1.000  H
  C1774    1.0000 0.23110  0.02120  0.63460  Biso   1.000  C
  H1692    1.0000 0.22410  0.99280  0.62350  Biso   1.000  H
  H1693    1.0000 0.24300  0.01440  0.64080  Biso   1.000  H
  C1775    1.0000 0.27737  0.27750  0.83810  Biso   1.000  C
  C1776    1.0000 0.28166  0.27050  0.86900  Biso   1.000  C
  H1694    1.0000 0.28000  0.23960  0.87540  Biso   1.000  H
  C1777    1.0000 0.28830  0.30600  0.89110  Biso   1.000  C
  H1695    1.0000 0.29110  0.29980  0.91240  Biso   1.000  H
  C1778    1.0000 0.29090  0.35150  0.88220  Biso   1.000  C
  C1779    1.0000 0.28740  0.35870  0.85210  Biso   1.000  C
  H1696    1.0000 0.28990  0.38910  0.84630  Biso   1.000  H
  C1780    1.0000 0.28010  0.32180  0.82870  Biso   1.000  C
  H1697    1.0000 0.27720  0.32770  0.80720  Biso   1.000  H
  C1781    1.0000 0.29830  0.39320  0.90590  Biso   1.000  C
  H1698    1.0000 0.30020  0.38270  0.92670  Biso   1.000  H
  H1699    1.0000 0.29040  0.42030  0.89850  Biso   1.000  H
  H1700    1.0000 0.30910  0.40340  0.90750  Biso   1.000  H
  C1782    1.0000 0.27048  0.23570  0.79090  Biso   1.000  C
  H1701    1.0000 0.27720  0.25850  0.78740  Biso   1.000  H
  C1783    1.0000 0.26214  0.19710  0.76760  Biso   1.000  C
  C1784    1.0000 0.26412  0.19310  0.74180  Biso   1.000  C
  H1702    1.0000 0.27120  0.21540  0.73890  Biso   1.000  H
  C1785    1.0000 0.25610  0.15720  0.71920  Biso   1.000  C
  H1703    1.0000 0.25680  0.15590  0.70020  Biso   1.000  H
  C1786    1.0000 0.24710  0.12340  0.72620  Biso   1.000  C
  C1787    1.0000 0.24622  0.12780  0.75430  Biso   1.000  C
  H1704    1.0000 0.24020  0.10400  0.75900  Biso   1.000  H
  C1788    1.0000 0.23980  0.07850  0.67980  Biso   1.000  C
  H1705    1.0000 0.23500  0.10690  0.66590  Biso   1.000  H
  H1706    1.0000 0.25170  0.07430  0.68460  Biso   1.000  H
  C1789    1.0000 0.10738  0.94110  0.57430  Biso   1.000  C
  C1790    1.0000 0.09810  0.96920  0.58330  Biso   1.000  C
  H1707    1.0000 0.10360  0.99320  0.59900  Biso   1.000  H
  C1791    1.0000 0.08090  0.96340  0.57010  Biso   1.000  C
  H1708    1.0000 0.07460  0.98410  0.57610  Biso   1.000  H
  C1792    1.0000 0.07280  0.92780  0.54810  Biso   1.000  C
  C1793    1.0000 0.08160  0.89900  0.53940  Biso   1.000  C
  H1709    1.0000 0.07610  0.87450  0.52410  Biso   1.000  H
  C1794    1.0000 0.09900  0.90540  0.55310  Biso   1.000  C
  H1710    1.0000 0.10530  0.88400  0.54740  Biso   1.000  H
  C1795    1.0000 0.05360  0.92160  0.53290  Biso   1.000  C
  H1711    1.0000 0.05100  0.89830  0.54520  Biso   1.000  H
  H1712    1.0000 0.04840  0.95260  0.53270  Biso   1.000  H
  H1713    1.0000 0.04910  0.90990  0.51120  Biso   1.000  H
  C1796    1.0000 0.13263  0.98420  0.59500  Biso   1.000  C
  H1714    1.0000 0.12570  0.01200  0.59060  Biso   1.000  H
  C1797    1.0000 0.15094  0.99060  0.61010  Biso   1.000  C
  C1798    1.0000 0.15828  0.03530  0.61650  Biso   1.000  C
  H1715    1.0000 0.15140  0.06310  0.61270  Biso   1.000  H
  C1799    1.0000 0.17569  0.04040  0.62860  Biso   1.000  C
  H1716    1.0000 0.18090  0.07120  0.63330  Biso   1.000  H
  C1800    1.0000 0.18488  0.99980  0.63350  Biso   1.000  C
  C1801    1.0000 0.17648  0.95550  0.62680  Biso   1.000  C
  H1717    1.0000 0.18310  0.92720  0.63120  Biso   1.000  H
  C1802    1.0000 0.21104  0.04250  0.65410  Biso   1.000  C
  H1718    1.0000 0.20620  0.06620  0.63660  Biso   1.000  H
  H1719    1.0000 0.21020  0.05590  0.67230  Biso   1.000  H
  C1803    1.0000 0.22936  0.03310  0.66360  Biso   1.000  C
  C1804    1.0000 0.23680  0.99060  0.68760  Biso   1.000  C
  H1720    1.0000 0.23700  0.99930  0.70740  Biso   1.000  H
  H1721    1.0000 0.22980  0.96200  0.67850  Biso   1.000  H
  H1722    1.0000 0.24840  0.98400  0.69180  Biso   1.000  H
  O124     1.0000 0.09774  0.57610  0.54500  Biso   1.000  O
  O125     1.0000 0.10768  0.58720  0.63950  Biso   1.000  O
  O126     1.0000 0.07651  0.50650  0.59220  Biso   1.000  O
  N247     1.0000 0.12780  0.56630  0.45330  Biso   1.000  N
  N248     1.0000 0.11048  0.55980  0.48680  Biso   1.000  N
  N249     1.0000 0.13869  0.58990  0.78650  Biso   1.000  N
  N250     1.0000 0.13009  0.58290  0.72340  Biso   1.000  N
  N251     1.0000 0.05225  0.30090  0.60420  Biso   1.000  N
  N252     1.0000 0.05744  0.39750  0.59760  Biso   1.000  N
  C1805    1.0000 0.13669  0.56560  0.43620  Biso   1.000  C
  C1806    1.0000 0.15381  0.57200  0.44990  Biso   1.000  C
  H1723    1.0000 0.16020  0.57840  0.47190  Biso   1.000  H
  C1807    1.0000 0.16200  0.56920  0.43190  Biso   1.000  C
  H1724    1.0000 0.17370  0.57650  0.44130  Biso   1.000  H
  C1808    1.0000 0.15320  0.55600  0.40080  Biso   1.000  C
  C1809    1.0000 0.13600  0.55110  0.38660  Biso   1.000  C
  H1725    1.0000 0.12950  0.54600  0.36440  Biso   1.000  H
  C1810    1.0000 0.12760  0.55370  0.40510  Biso   1.000  C
  H1726    1.0000 0.11580  0.54710  0.39580  Biso   1.000  H
  C1811    1.0000 0.16170  0.54700  0.38110  Biso   1.000  C
  H1727    1.0000 0.17400  0.54950  0.39450  Biso   1.000  H
  H1728    1.0000 0.15890  0.51470  0.37190  Biso   1.000  H
  H1729    1.0000 0.15790  0.57090  0.36410  Biso   1.000  H
  C1812    1.0000 0.13188  0.59380  0.47750  Biso   1.000  C
  H1730    1.0000 0.14050  0.61720  0.48280  Biso   1.000  H
  C1813    1.0000 0.12377  0.59030  0.49700  Biso   1.000  C
  C1814    1.0000 0.12914  0.61830  0.52350  Biso   1.000  C
  H1731    1.0000 0.13830  0.64020  0.52970  Biso   1.000  H
  C1815    1.0000 0.12098  0.61370  0.54090  Biso   1.000  C
  H1732    1.0000 0.12460  0.63190  0.55970  Biso   1.000  H
  C1816    1.0000 0.10767  0.58300  0.53100  Biso   1.000  C
  C1817    1.0000 0.10251  0.55730  0.50380  Biso   1.000  C
  H1733    1.0000 0.09290  0.53690  0.49680  Biso   1.000  H
  C1818    1.0000 0.10188  0.59690  0.57520  Biso   1.000  C
  H1734    1.0000 0.11330  0.58660  0.59160  Biso   1.000  H
  H1735    1.0000 0.10170  0.63240  0.57390  Biso   1.000  H
  C1819    1.0000 0.14361  0.58840  0.81930  Biso   1.000  C
  C1820    1.0000 0.16002  0.59520  0.84160  Biso   1.000  C
  H1736    1.0000 0.16800  0.60310  0.83500  Biso   1.000  H
  C1821    1.0000 0.16540  0.59100  0.87340  Biso   1.000  C
  H1737    1.0000 0.17690  0.59620  0.88850  Biso   1.000  H
  C1822    1.0000 0.15390  0.57920  0.88340  Biso   1.000  C
  C1823    1.0000 0.13750  0.57290  0.86140  Biso   1.000  C
  H1738    1.0000 0.12960  0.56500  0.86830  Biso   1.000  H
  C1824    1.0000 0.13161  0.57750  0.82840  Biso   1.000  C
  H1739    1.0000 0.12000  0.57340  0.81320  Biso   1.000  H
  C1825    1.0000 0.15870  0.57360  0.91890  Biso   1.000  C
  H1740    1.0000 0.16820  0.59500  0.93190  Biso   1.000  H
  H1741    1.0000 0.14890  0.58200  0.92150  Biso   1.000  H
  H1742    1.0000 0.16200  0.54020  0.92560  Biso   1.000  H
  C1826    1.0000 0.12470  0.60750  0.76500  Biso   1.000  C
  H1743    1.0000 0.11740  0.62230  0.77130  Biso   1.000  H
  C1827    1.0000 0.11948  0.60580  0.73120  Biso   1.000  C
  C1828    1.0000 0.10410  0.62190  0.70890  Biso   1.000  C
  H1744    1.0000 0.09650  0.63520  0.71520  Biso   1.000  H
  C1829    1.0000 0.09930  0.61900  0.67680  Biso   1.000  C
  H1745    1.0000 0.08880  0.63160  0.66100  Biso   1.000  H
  C1830    1.0000 0.11048  0.59680  0.66870  Biso   1.000  C
  C1831    1.0000 0.12579  0.57940  0.69290  Biso   1.000  C
  H1746    1.0000 0.13340  0.56440  0.68750  Biso   1.000  H
  C1832    1.0000 0.09125  0.60170  0.61420  Biso   1.000  C
  H1747    1.0000 0.08230  0.59130  0.61900  Biso   1.000  H
  H1748    1.0000 0.09080  0.63720  0.61210  Biso   1.000  H
  C1833    1.0000 0.04760  0.25110  0.60300  Biso   1.000  C
  C1834    1.0000 0.04650  0.22180  0.57940  Biso   1.000  C
  H1749    1.0000 0.04880  0.23440  0.56360  Biso   1.000  H
  C1835    1.0000 0.04220  0.17470  0.57830  Biso   1.000  C
  H1750    1.0000 0.04230  0.15430  0.56270  Biso   1.000  H
  C1836    1.0000 0.03760  0.15630  0.59920  Biso   1.000  C
  C1837    1.0000 0.03850  0.18450  0.62220  Biso   1.000  C
  H1751    1.0000 0.03500  0.17240  0.63660  Biso   1.000  H
  C1838    1.0000 0.04440  0.23190  0.62540  Biso   1.000  C
  H1752    1.0000 0.04610  0.25060  0.64320  Biso   1.000  H
  C1839    1.0000 0.03140  0.10340  0.59490  Biso   1.000  C
  H1753    1.0000 0.03440  0.08960  0.61560  Biso   1.000  H
  H1754    1.0000 0.01910  0.10250  0.58140  Biso   1.000  H
  H1755    1.0000 0.03680  0.08470  0.58510  Biso   1.000  H
  C1840    1.0000 0.06400  0.31250  0.59870  Biso   1.000  C
  H1756    1.0000 0.07040  0.28810  0.59550  Biso   1.000  H
  C1841    1.0000 0.06800  0.36390  0.59720  Biso   1.000  C
  C1842    1.0000 0.08050  0.37520  0.59020  Biso   1.000  C
  H1757    1.0000 0.08640  0.35050  0.58610  Biso   1.000  H
  C1843    1.0000 0.08462  0.42370  0.58930  Biso   1.000  C
  H1758    1.0000 0.09390  0.43240  0.58630  Biso   1.000  H
  C1844    1.0000 0.07489  0.45780  0.59280  Biso   1.000  C
  C1845    1.0000 0.06138  0.44220  0.59750  Biso   1.000  C
  H1759    1.0000 0.05480  0.46590  0.60060  Biso   1.000  H
  C1846    1.0000 0.08984  0.52370  0.58610  Biso   1.000  C
  H1760    1.0000 0.10110  0.51440  0.60370  Biso   1.000  H
  H1761    1.0000 0.08850  0.50960  0.56630  Biso   1.000  H
  C1847    1.0000 0.08835  0.57870  0.58330  Biso   1.000  C
  C1848    1.0000 0.07021  0.59320  0.55720  Biso   1.000  C
  H1762    1.0000 0.06980  0.62800  0.55370  Biso   1.000  H
  H1763    1.0000 0.06750  0.57640  0.53740  Biso   1.000  H
  H1764    1.0000 0.06200  0.58430  0.56400  Biso   1.000  H
  O127     1.0000 0.18824  0.40440  0.85760  Biso   1.000  O
  O128     1.0000 0.21479  0.28010  0.87120  Biso   1.000  O
  O129     1.0000 0.17436  0.26570  0.85670  Biso   1.000  O
  N253     1.0000 0.17750  0.59860  0.78410  Biso   1.000  N
  N254     1.0000 0.17640  0.51200  0.81210  Biso   1.000  N
  N255     1.0000 0.26456  0.14080  0.85740  Biso   1.000  N
  N256     1.0000 0.24158  0.20800  0.85410  Biso   1.000  N
  N257     1.0000 0.11467  0.12960  0.77110  Biso   1.000  N
  N258     1.0000 0.14049  0.18280  0.81830  Biso   1.000  N
  C1849    1.0000 0.17720  0.64740  0.77560  Biso   1.000  C
  C1850    1.0000 0.16420  0.66470  0.74740  Biso   1.000  C
  H1765    1.0000 0.15610  0.64290  0.73280  Biso   1.000  H
  C1851    1.0000 0.16290  0.71360  0.74010  Biso   1.000  C
  H1766    1.0000 0.15380  0.72500  0.72080  Biso   1.000  H
  C1852    1.0000 0.17470  0.74530  0.76090  Biso   1.000  C
  C1853    1.0000 0.18840  0.72750  0.78770  Biso   1.000  C
  H1767    1.0000 0.19680  0.74900  0.80200  Biso   1.000  H
  C1854    1.0000 0.19010  0.67730  0.79430  Biso   1.000  C
  H1768    1.0000 0.20010  0.66480  0.81150  Biso   1.000  H
  C1855    1.0000 0.17450  0.79820  0.75320  Biso   1.000  C
  H1769    1.0000 0.17230  0.81730  0.76790  Biso   1.000  H
  H1770    1.0000 0.18540  0.80730  0.75520  Biso   1.000  H
  H1771    1.0000 0.16550  0.80410  0.73140  Biso   1.000  H
  C1856    1.0000 0.19090  0.57710  0.80390  Biso   1.000  C
  H1772    1.0000 0.20140  0.59260  0.81010  Biso   1.000  H
  C1857    1.0000 0.19127  0.53060  0.81780  Biso   1.000  C
  C1858    1.0000 0.20600  0.50490  0.83370  Biso   1.000  C
  H1773    1.0000 0.21640  0.51710  0.83600  Biso   1.000  H
  C1859    1.0000 0.20540  0.46120  0.84610  Biso   1.000  C
  H1774    1.0000 0.21530  0.44190  0.85640  Biso   1.000  H
  C1860    1.0000 0.19059  0.44540  0.84380  Biso   1.000  C
  C1861    1.0000 0.17631  0.46970  0.82500  Biso   1.000  C
  H1775    1.0000 0.16580  0.45620  0.82070  Biso   1.000  H
  C1862    1.0000 0.20244  0.37300  0.87420  Biso   1.000  C
  H1776    1.0000 0.20780  0.36590  0.86110  Biso   1.000  H
  H1777    1.0000 0.21090  0.38820  0.89420  Biso   1.000  H
  C1863    1.0000 0.27684  0.10520  0.85880  Biso   1.000  C
  C1864    1.0000 0.28730  0.11650  0.84700  Biso   1.000  C
  H1778    1.0000 0.28620  0.14690  0.83730  Biso   1.000  H
  C1865    1.0000 0.29940  0.08460  0.84880  Biso   1.000  C
  H1779    1.0000 0.30700  0.09380  0.84160  Biso   1.000  H
  C1866    1.0000 0.30030  0.03890  0.86120  Biso   1.000  C
  C1867    1.0000 0.28890  0.02670  0.87010  Biso   1.000  C
  H1780    1.0000 0.28870  0.99440  0.87640  Biso   1.000  H
  C1868    1.0000 0.27690  0.05990  0.87050  Biso   1.000  C
  H1781    1.0000 0.26940  0.05130  0.87830  Biso   1.000  H
  C1869    1.0000 0.31300  0.00070  0.86250  Biso   1.000  C
  H1782    1.0000 0.32430  0.00790  0.88010  Biso   1.000  H
  H1783    1.0000 0.30940  0.96880  0.86550  Biso   1.000  H
  H1784    1.0000 0.31340  0.00120  0.84260  Biso   1.000  H
  C1870    1.0000 0.26237  0.14590  0.88150  Biso   1.000  C
  H1785    1.0000 0.26870  0.12670  0.89980  Biso   1.000  H
  C1871    1.0000 0.25016  0.18120  0.88120  Biso   1.000  C
  C1872    1.0000 0.24782  0.18800  0.90670  Biso   1.000  C
  H1786    1.0000 0.25420  0.16960  0.92540  Biso   1.000  H
  C1873    1.0000 0.23618  0.22160  0.90610  Biso   1.000  C
  H1787    1.0000 0.23440  0.22630  0.92370  Biso   1.000  H
  C1874    1.0000 0.22721  0.24800  0.87800  Biso   1.000  C
  C1875    1.0000 0.23035  0.23940  0.85270  Biso   1.000  C
  H1788    1.0000 0.22400  0.25700  0.83360  Biso   1.000  H
  C1876    1.0000 0.21008  0.28990  0.89520  Biso   1.000  C
  H1789    1.0000 0.20630  0.26010  0.90100  Biso   1.000  H
  H1790    1.0000 0.21980  0.30310  0.91440  Biso   1.000  H
  C1877    1.0000 0.09930  0.10770  0.74800  Biso   1.000  C
  C1878    1.0000 0.08450  0.13280  0.72950  Biso   1.000  C
  H1791    1.0000 0.08420  0.16660  0.73180  Biso   1.000  H
  C1879    1.0000 0.07010  0.10800  0.70720  Biso   1.000  C
  H1792    1.0000 0.05990  0.12530  0.69480  Biso   1.000  H
  C1880    1.0000 0.07050  0.05880  0.70330  Biso   1.000  C
  C1881    1.0000 0.08490  0.03470  0.72140  Biso   1.000  C
  H1793    1.0000 0.08540  0.00110  0.71860  Biso   1.000  H
  C1882    1.0000 0.09890  0.05910  0.74450  Biso   1.000  C
  H1794    1.0000 0.10870  0.04100  0.75840  Biso   1.000  H
  C1883    1.0000 0.05460  0.03090  0.67920  Biso   1.000  C
  H1795    1.0000 0.04870  0.04930  0.65950  Biso   1.000  H
  H1796    1.0000 0.05790  0.99950  0.67490  Biso   1.000  H
  H1797    1.0000 0.04690  0.02630  0.68810  Biso   1.000  H
  C1884    1.0000 0.11969  0.16740  0.76400  Biso   1.000  C
  H1798    1.0000 0.11400  0.17820  0.74260  Biso   1.000  H
  C1885    1.0000 0.13412  0.19550  0.78750  Biso   1.000  C
  C1886    1.0000 0.14070  0.23160  0.77800  Biso   1.000  C
  H1799    1.0000 0.13580  0.23950  0.75620  Biso   1.000  H
  C1887    1.0000 0.15450  0.25710  0.80040  Biso   1.000  C
  H1800    1.0000 0.15920  0.28290  0.79430  Biso   1.000  H
  C1888    1.0000 0.16113  0.24420  0.83130  Biso   1.000  C
  C1889    1.0000 0.15315  0.20730  0.83920  Biso   1.000  C
  H1801    1.0000 0.15730  0.20020  0.86100  Biso   1.000  H
  C1890    1.0000 0.18100  0.30880  0.85030  Biso   1.000  C
  H1802    1.0000 0.18490  0.30190  0.83480  Biso   1.000  H
  H1803    1.0000 0.17210  0.33370  0.84120  Biso   1.000  H
  C1891    1.0000 0.19568  0.32670  0.88120  Biso   1.000  C
  C1892    1.0000 0.18941  0.33500  0.90550  Biso   1.000  C
  H1804    1.0000 0.19880  0.34720  0.92530  Biso   1.000  H
  H1805    1.0000 0.18020  0.35860  0.89700  Biso   1.000  H
  H1806    1.0000 0.18530  0.30460  0.90950  Biso   1.000  H
  O130     1.0000 0.15141  0.24960  0.39950  Biso   1.000  O
  O131     1.0000 0.11431  0.34680  0.38340  Biso   1.000  O
  O132     1.0000 0.10255  0.22940  0.37820  Biso   1.000  O
  N259     1.0000 0.22627  0.22420  0.50660  Biso   1.000  N
  N260     1.0000 0.19274  0.21740  0.45930  Biso   1.000  N
  N261     1.0000 0.08424  0.53860  0.40040  Biso   1.000  N
  N262     1.0000 0.10205  0.45690  0.40340  Biso   1.000  N
  N263     1.0000 0.05833  0.14000  0.43170  Biso   1.000  N
  N264     1.0000 0.07326  0.17290  0.39680  Biso   1.000  N
  C1893    1.0000 0.24332  0.22770  0.53050  Biso   1.000  C
  C1894    1.0000 0.25100  0.27120  0.54360  Biso   1.000  C
  H1807    1.0000 0.24490  0.30040  0.53580  Biso   1.000  H
  C1895    1.0000 0.26760  0.27220  0.56790  Biso   1.000  C
  H1808    1.0000 0.27310  0.30220  0.57540  Biso   1.000  H
  C1896    1.0000 0.27610  0.23060  0.58130  Biso   1.000  C
  C1897    1.0000 0.26860  0.18730  0.56790  Biso   1.000  C
  H1809    1.0000 0.27470  0.15820  0.57620  Biso   1.000  H
  C1898    1.0000 0.25201  0.18580  0.54190  Biso   1.000  C
  H1810    1.0000 0.24700  0.15590  0.53260  Biso   1.000  H
  C1899    1.0000 0.29360  0.23060  0.61010  Biso   1.000  C
  H1811    1.0000 0.29810  0.19780  0.61420  Biso   1.000  H
  H1812    1.0000 0.30100  0.25170  0.60620  Biso   1.000  H
  H1813    1.0000 0.29290  0.24230  0.62850  Biso   1.000  H
  C1900    1.0000 0.21921  0.25880  0.48660  Biso   1.000  C
  H1814    1.0000 0.22600  0.28560  0.48760  Biso   1.000  H
  C1901    1.0000 0.20152  0.25880  0.46270  Biso   1.000  C
  C1902    1.0000 0.19380  0.29890  0.44460  Biso   1.000  C
  H1815    1.0000 0.20030  0.32670  0.44650  Biso   1.000  H
  C1903    1.0000 0.17680  0.29890  0.42370  Biso   1.000  C
  H1816    1.0000 0.17120  0.32690  0.41200  Biso   1.000  H
  C1904    1.0000 0.16814  0.25720  0.42050  Biso   1.000  C
  C1905    1.0000 0.17630  0.21770  0.43790  Biso   1.000  C
  H1817    1.0000 0.17000  0.18900  0.43480  Biso   1.000  H
  C1906    1.0000 0.14076  0.29120  0.38550  Biso   1.000  C
  H1818    1.0000 0.14260  0.31500  0.40210  Biso   1.000  H
  H1819    1.0000 0.14350  0.30660  0.37010  Biso   1.000  H
  C1907    1.0000 0.07470  0.58040  0.40040  Biso   1.000  C
  C1908    1.0000 0.08260  0.61910  0.41900  Biso   1.000  C
  H1820    1.0000 0.09460  0.61880  0.43160  Biso   1.000  H
  C1909    1.0000 0.07380  0.65880  0.42020  Biso   1.000  C
  H1821    1.0000 0.07960  0.68490  0.43380  Biso   1.000  H
  C1910    1.0000 0.05630  0.66060  0.40160  Biso   1.000  C
  C1911    1.0000 0.04860  0.62310  0.38240  Biso   1.000  C
  H1822    1.0000 0.03660  0.62410  0.36960  Biso   1.000  H
  C1912    1.0000 0.05730  0.58190  0.38020  Biso   1.000  C
  H1823    1.0000 0.05150  0.55670  0.36570  Biso   1.000  H
  C1913    1.0000 0.04530  0.70090  0.40440  Biso   1.000  C
  H1824    1.0000 0.05260  0.72380  0.42080  Biso   1.000  H
  H1825    1.0000 0.03910  0.71770  0.38400  Biso   1.000  H
  H1826    1.0000 0.03720  0.68680  0.41000  Biso   1.000  H
  C1914    1.0000 0.08000  0.51570  0.37440  Biso   1.000  C
  H1827    1.0000 0.07110  0.52760  0.35490  Biso   1.000  H
  C1915    1.0000 0.08878  0.47120  0.37490  Biso   1.000  C
  C1916    1.0000 0.08470  0.44590  0.34770  Biso   1.000  C
  H1828    1.0000 0.07590  0.45740  0.32810  Biso   1.000  H
  C1917    1.0000 0.09311  0.40390  0.34830  Biso   1.000  C
  H1829    1.0000 0.09060  0.38690  0.32940  Biso   1.000  H
  C1918    1.0000 0.10548  0.38770  0.37790  Biso   1.000  C
  C1919    1.0000 0.10996  0.41610  0.40470  Biso   1.000  C
  H1830    1.0000 0.11890  0.40580  0.42450  Biso   1.000  H
  C1920    1.0000 0.11038  0.31650  0.35620  Biso   1.000  C
  H1831    1.0000 0.09850  0.30530  0.34620  Biso   1.000  H
  H1832    1.0000 0.11210  0.33440  0.34020  Biso   1.000  H
  C1921    1.0000 0.05150  0.12060  0.45070  Biso   1.000  C
  C1922    1.0000 0.06090  0.09860  0.47930  Biso   1.000  C
  H1833    1.0000 0.07280  0.09600  0.48750  Biso   1.000  H
  C1923    1.0000 0.05380  0.08020  0.49660  Biso   1.000  C
  H1834    1.0000 0.06060  0.06520  0.51650  Biso   1.000  H
  C1924    1.0000 0.03630  0.08390  0.48420  Biso   1.000  C
  C1925    1.0000 0.02680  0.10670  0.45640  Biso   1.000  C
  H1835    1.0000 0.01500  0.11120  0.44860  Biso   1.000  H
  C1926    1.0000 0.03450  0.12340  0.43920  Biso   1.000  C
  H1836    1.0000 0.02760  0.13710  0.41880  Biso   1.000  H
  C1927    1.0000 0.02860  0.06320  0.50390  Biso   1.000  C
  H1837    1.0000 0.03750  0.04820  0.52320  Biso   1.000  H
  H1838    1.0000 0.02000  0.03900  0.49140  Biso   1.000  H
  H1839    1.0000 0.02330  0.08910  0.50970  Biso   1.000  H
  C1928    1.0000 0.07350  0.15190  0.44550  Biso   1.000  C
  H1840    1.0000 0.07980  0.14880  0.46790  Biso   1.000  H
  C1929    1.0000 0.08224  0.17030  0.42870  Biso   1.000  C
  C1930    1.0000 0.09861  0.18500  0.44520  Biso   1.000  C
  H1841    1.0000 0.10470  0.18250  0.46760  Biso   1.000  H
  C1931    1.0000 0.10633  0.20350  0.42890  Biso   1.000  C
  H1842    1.0000 0.11790  0.21290  0.43990  Biso   1.000  H
  C1932    1.0000 0.09721  0.20820  0.39700  Biso   1.000  C
  C1933    1.0000 0.08017  0.19260  0.38190  Biso   1.000  C
  H1843    1.0000 0.07350  0.19680  0.35970  Biso   1.000  H
  C1934    1.0000 0.11988  0.24650  0.39360  Biso   1.000  C
  H1844    1.0000 0.12200  0.26790  0.41150  Biso   1.000  H
  H1845    1.0000 0.12780  0.21900  0.40190  Biso   1.000  H
  C1935    1.0000 0.12250  0.27390  0.36890  Biso   1.000  C
  C1936    1.0000 0.11910  0.24030  0.34030  Biso   1.000  C
  H1846    1.0000 0.12670  0.21250  0.34800  Biso   1.000  H
  H1847    1.0000 0.10730  0.22910  0.33010  Biso   1.000  H
  H1848    1.0000 0.12100  0.25820  0.32490  Biso   1.000  H
  O133     1.0000 0.02122  0.37070  0.47490  Biso   1.000  O
  O134     1.0000 0.02697  0.31060  0.40340  Biso   1.000  O
  O135     1.0000 0.05330  0.40640  0.44140  Biso   1.000  O
  N265     1.0000 0.01170  0.30760  0.58890  Biso   1.000  N
  N266     1.0000 0.02086  0.34360  0.54640  Biso   1.000  N
  N267     1.0000 0.03902  0.15630  0.32370  Biso   1.000  N
  N268     1.0000 0.03341  0.21100  0.36500  Biso   1.000  N
  N269     1.0000 0.12826  0.46240  0.49060  Biso   1.000  N
  N270     1.0000 0.09363  0.45270  0.46190  Biso   1.000  N
  C1937    1.0000 0.00660  0.29340  0.61110  Biso   1.000  C
  C1938    1.0000 0.00190  0.24730  0.61280  Biso   1.000  C
  H1849    1.0000 0.00190  0.22400  0.59840  Biso   1.000  H
  C1939    1.0000 0.99710  0.23350  0.63490  Biso   1.000  C
  H1850    1.0000 0.99430  0.20100  0.63610  Biso   1.000  H
  C1940    1.0000 0.99650  0.26730  0.65500  Biso   1.000  C
  C1941    1.0000 0.00080  0.31380  0.65220  Biso   1.000  C
  H1851    1.0000 0.00150  0.33680  0.66730  Biso   1.000  H
  C1942    1.0000 0.00440  0.32990  0.62760  Biso   1.000  C
  H1852    1.0000 0.00520  0.36280  0.62340  Biso   1.000  H
  C1943    1.0000 0.99140  0.25230  0.67950  Biso   1.000  C
  H1853    1.0000 0.99870  0.26850  0.69960  Biso   1.000  H
  H1854    1.0000 0.97960  0.26140  0.67210  Biso   1.000  H
  H1855    1.0000 0.99260  0.21740  0.68260  Biso   1.000  H
  C1944    1.0000 0.00550  0.28930  0.56090  Biso   1.000  C
  H1856    1.0000 0.99800  0.26300  0.55560  Biso   1.000  H
  C1945    1.0000 0.00960  0.30710  0.53720  Biso   1.000  C
  C1946    1.0000 0.00160  0.29040  0.50690  Biso   1.000  C
  H1857    1.0000 0.99320  0.26600  0.50100  Biso   1.000  H
  C1947    1.0000 0.00550  0.30850  0.48510  Biso   1.000  C
  H1858    1.0000 0.00090  0.29510  0.46440  Biso   1.000  H
  C1948    1.0000 0.01636  0.34640  0.49390  Biso   1.000  C
  C1949    1.0000 0.02460  0.36050  0.52470  Biso   1.000  C
  H1859    1.0000 0.03340  0.38340  0.53110  Biso   1.000  H
  C1950    1.0000 0.01590  0.35250  0.44330  Biso   1.000  C
  H1860    1.0000 0.01850  0.31770  0.44400  Biso   1.000  H
  H1861    1.0000 0.00350  0.35710  0.42960  Biso   1.000  H
  C1951    1.0000 0.04360  0.12730  0.30410  Biso   1.000  C
  C1952    1.0000 0.04180  0.07900  0.30410  Biso   1.000  C
  H1862    1.0000 0.03770  0.06450  0.31680  Biso   1.000  H
  C1953    1.0000 0.04610  0.05090  0.28550  Biso   1.000  C
  H1863    1.0000 0.04460  0.01700  0.28520  Biso   1.000  H
  C1954    1.0000 0.05250  0.07100  0.26710  Biso   1.000  C
  C1955    1.0000 0.05340  0.11860  0.26570  Biso   1.000  C
  H1864    1.0000 0.05750  0.13250  0.25270  Biso   1.000  H
  C1956    1.0000 0.04830  0.14890  0.28360  Biso   1.000  C
  H1865    1.0000 0.04820  0.18290  0.28140  Biso   1.000  H
  C1957    1.0000 0.05760  0.03830  0.24730  Biso   1.000  C
  H1866    1.0000 0.04750  0.02410  0.22970  Biso   1.000  H
  H1867    1.0000 0.06360  0.05750  0.23890  Biso   1.000  H
  H1868    1.0000 0.06510  0.01260  0.26080  Biso   1.000  H
  C1958    1.0000 0.03210  0.19790  0.31500  Biso   1.000  C
  H1869    1.0000 0.02850  0.20800  0.29390  Biso   1.000  H
  C1959    1.0000 0.02950  0.23030  0.33600  Biso   1.000  C
  C1960    1.0000 0.02230  0.27450  0.32660  Biso   1.000  C
  H1870    1.0000 0.01830  0.28490  0.30540  Biso   1.000  H
  C1961    1.0000 0.02060  0.30450  0.34840  Biso   1.000  C
  H1871    1.0000 0.01560  0.33540  0.34230  Biso   1.000  H
  C1962    1.0000 0.02650  0.28780  0.37870  Biso   1.000  C
  C1963    1.0000 0.03270  0.24050  0.38620  Biso   1.000  C
  H1872    1.0000 0.03650  0.22900  0.40710  Biso   1.000  H
  C1964    1.0000 0.02200  0.36030  0.39890  Biso   1.000  C
  H1873    1.0000 0.02840  0.37820  0.39050  Biso   1.000  H
  H1874    1.0000 0.00980  0.36310  0.38350  Biso   1.000  H
  C1965    1.0000 0.14600  0.47290  0.50570  Biso   1.000  C
  C1966    1.0000 0.15432  0.49470  0.53460  Biso   1.000  C
  H1875    1.0000 0.14870  0.49980  0.54660  Biso   1.000  H
  C1967    1.0000 0.17064  0.50920  0.54620  Biso   1.000  C
  H1876    1.0000 0.17610  0.52540  0.56600  Biso   1.000  H
  C1968    1.0000 0.17949  0.50110  0.52980  Biso   1.000  C
  C1969    1.0000 0.17132  0.48000  0.50120  Biso   1.000  C
  H1877    1.0000 0.17700  0.47410  0.48940  Biso   1.000  H
  C1970    1.0000 0.15436  0.46670  0.48870  Biso   1.000  C
  H1878    1.0000 0.14850  0.45310  0.46810  Biso   1.000  H
  C1971    1.0000 0.19788  0.51670  0.54410  Biso   1.000  C
  H1879    1.0000 0.20070  0.53790  0.56220  Biso   1.000  H
  H1880    1.0000 0.20520  0.48830  0.55120  Biso   1.000  H
  H1881    1.0000 0.19950  0.53400  0.52820  Biso   1.000  H
  C1972    1.0000 0.12196  0.43980  0.50420  Biso   1.000  C
  H1882    1.0000 0.12930  0.42740  0.52470  Biso   1.000  H
  C1973    1.0000 0.10372  0.43120  0.49030  Biso   1.000  C
  C1974    1.0000 0.09734  0.39980  0.50360  Biso   1.000  C
  H1883    1.0000 0.10460  0.38490  0.52330  Biso   1.000  H
  C1975    1.0000 0.08010  0.38980  0.48820  Biso   1.000  C
  H1884    1.0000 0.07550  0.36720  0.49670  Biso   1.000  H
  C1976    1.0000 0.07010  0.41300  0.46070  Biso   1.000  C
  C1977    1.0000 0.07763  0.44360  0.44830  Biso   1.000  C
  H1885    1.0000 0.07050  0.45860  0.42860  Biso   1.000  H
  C1978    1.0000 0.04442  0.37800  0.45410  Biso   1.000  C
  H1886    1.0000 0.04820  0.34410  0.45680  Biso   1.000  H
  H1887    1.0000 0.04680  0.39080  0.47490  Biso   1.000  H
  C1979    1.0000 0.02563  0.38100  0.43080  Biso   1.000  C
  C1980    1.0000 0.01930  0.43340  0.42390  Biso   1.000  C
  H1888    1.0000 0.02140  0.44910  0.44370  Biso   1.000  H
  H1889    1.0000 0.02540  0.45080  0.41490  Biso   1.000  H
  H1890    1.0000 0.00720  0.43380  0.40890  Biso   1.000  H
  O136     1.0000 0.09481  0.30190  0.80870  Biso   1.000  O
  O137     1.0000 0.06920  0.38690  0.73200  Biso   1.000  O
  O138     1.0000 0.10928  0.42180  0.77820  Biso   1.000  O
  N271     1.0000 0.10128  0.07780  0.81760  Biso   1.000  N
  N272     1.0000 0.10437  0.17800  0.81920  Biso   1.000  N
  N273     1.0000 0.01766  0.43130  0.59160  Biso   1.000  N
  N274     1.0000 0.04223  0.39750  0.64950  Biso   1.000  N
  N275     1.0000 0.16257  0.49120  0.74100  Biso   1.000  N
  N276     1.0000 0.13929  0.47690  0.76100  Biso   1.000  N
  C1981    1.0000 0.10020  0.02760  0.82150  Biso   1.000  C
  C1982    1.0000 0.08844  0.00750  0.82840  Biso   1.000  C
  H1891    1.0000 0.08050  0.02720  0.83070  Biso   1.000  H
  C1983    1.0000 0.08840  0.95770  0.83180  Biso   1.000  C
  H1892    1.0000 0.08060  0.94400  0.83740  Biso   1.000  H
  C1984    1.0000 0.09900  0.92790  0.82760  Biso   1.000  C
  C1985    1.0000 0.11070  0.94750  0.82010  Biso   1.000  C
  H1893    1.0000 0.11810  0.92750  0.81660  Biso   1.000  H
  C1986    1.0000 0.11130  0.99820  0.81790  Biso   1.000  C
  H1894    1.0000 0.11960  0.01220  0.81380  Biso   1.000  H
  C1987    1.0000 0.09910  0.87390  0.83220  Biso   1.000  C
  H1895    1.0000 0.10540  0.86640  0.85490  Biso   1.000  H
  H1896    1.0000 0.08740  0.86240  0.82340  Biso   1.000  H
  H1897    1.0000 0.10450  0.85800  0.82130  Biso   1.000  H
  C1988    1.0000 0.08847  0.10510  0.80800  Biso   1.000  C
  H1898    1.0000 0.07780  0.09040  0.80080  Biso   1.000  H
  C1989    1.0000 0.08903  0.15760  0.80710  Biso   1.000  C
  C1990    1.0000 0.07476  0.18460  0.79480  Biso   1.000  C
  H1899    1.0000 0.06410  0.16920  0.78670  Biso   1.000  H
  C1991    1.0000 0.07549  0.23400  0.79380  Biso   1.000  C
  H1900    1.0000 0.06560  0.25330  0.78460  Biso   1.000  H
  C1992    1.0000 0.09145  0.25360  0.80710  Biso   1.000  C
  C1993    1.0000 0.10525  0.22520  0.81900  Biso   1.000  C
  H1901    1.0000 0.11610  0.23990  0.82760  Biso   1.000  H
  C1994    1.0000 0.08104  0.33180  0.78740  Biso   1.000  C
  H1902    1.0000 0.07540  0.31770  0.76590  Biso   1.000  H
  H1903    1.0000 0.07260  0.33490  0.79470  Biso   1.000  H
  C1995    1.0000 0.00440  0.44890  0.56130  Biso   1.000  C
  C1996    1.0000 0.99170  0.41930  0.54130  Biso   1.000  C
  H1904    1.0000 0.99180  0.38670  0.54710  Biso   1.000  H
  C1997    1.0000 0.97870  0.43530  0.51260  Biso   1.000  C
  H1905    1.0000 0.96970  0.41410  0.49970  Biso   1.000  H
  C1998    1.0000 0.97860  0.48170  0.50280  Biso   1.000  C
  C1999    1.0000 0.99170  0.51040  0.52140  Biso   1.000  C
  H1906    1.0000 0.99240  0.54120  0.51360  Biso   1.000  H
  C2000    1.0000 0.00470  0.49670  0.55240  Biso   1.000  C
  H1907    1.0000 0.01300  0.51890  0.56610  Biso   1.000  H
  C2001    1.0000 0.96490  0.50020  0.47000  Biso   1.000  C
  H1908    1.0000 0.95520  0.51230  0.47170  Biso   1.000  H
  H1909    1.0000 0.96960  0.52620  0.46300  Biso   1.000  H
  H1910    1.0000 0.96120  0.47380  0.45470  Biso   1.000  H
  C2002    1.0000 0.02150  0.45650  0.61640  Biso   1.000  C
  H1911    1.0000 0.01600  0.48630  0.61420  Biso   1.000  H
  C2003    1.0000 0.03430  0.44070  0.64780  Biso   1.000  C
  C2004    1.0000 0.03750  0.46700  0.67400  Biso   1.000  C
  H1912    1.0000 0.03140  0.49590  0.67150  Biso   1.000  H
  C2005    1.0000 0.04950  0.45280  0.70430  Biso   1.000  C
  H1913    1.0000 0.05210  0.47130  0.72270  Biso   1.000  H
  C2006    1.0000 0.05750  0.40870  0.70560  Biso   1.000  C
  C2007    1.0000 0.05350  0.38250  0.67810  Biso   1.000  C
  H1914    1.0000 0.05920  0.35280  0.68000  Biso   1.000  H
  C2008    1.0000 0.07424  0.41160  0.76170  Biso   1.000  C
  H1915    1.0000 0.07820  0.44460  0.76110  Biso   1.000  H
  H1916    1.0000 0.06470  0.41360  0.76610  Biso   1.000  H
  C2009    1.0000 0.17698  0.49760  0.73660  Biso   1.000  C
  C2010    1.0000 0.19030  0.46690  0.74880  Biso   1.000  C
  H1917    1.0000 0.18970  0.43830  0.75890  Biso   1.000  H
  C2011    1.0000 0.20470  0.47650  0.74670  Biso   1.000  C
  H1918    1.0000 0.21410  0.45510  0.75610  Biso   1.000  H
  C2012    1.0000 0.20560  0.51720  0.73100  Biso   1.000  C
  C2013    1.0000 0.19280  0.54800  0.72080  Biso   1.000  C
  H1919    1.0000 0.19360  0.57770  0.71180  Biso   1.000  H
  C2014    1.0000 0.17830  0.53830  0.72280  Biso   1.000  C
  H1920    1.0000 0.16920  0.56060  0.71430  Biso   1.000  H
  C2015    1.0000 0.22130  0.52860  0.72740  Biso   1.000  C
  H1921    1.0000 0.23150  0.51730  0.74620  Biso   1.000  H
  H1922    1.0000 0.22020  0.51240  0.70850  Biso   1.000  H
  H1923    1.0000 0.22200  0.56340  0.72520  Biso   1.000  H
  C2016    1.0000 0.15670  0.44950  0.73950  Biso   1.000  C
  H1924    1.0000 0.15990  0.42440  0.73010  Biso   1.000  H
  C2017    1.0000 0.14510  0.43890  0.75170  Biso   1.000  C
  C2018    1.0000 0.13910  0.39330  0.75060  Biso   1.000  C
  H1925    1.0000 0.14310  0.36750  0.74310  Biso   1.000  H
  C2019    1.0000 0.12730  0.38480  0.76030  Biso   1.000  C
  H1926    1.0000 0.12350  0.35310  0.76080  Biso   1.000  H
  C2020    1.0000 0.12132  0.42330  0.76920  Biso   1.000  C
  C2021    1.0000 0.12764  0.46880  0.76850  Biso   1.000  C
  H1927    1.0000 0.12300  0.49560  0.77380  Biso   1.000  H
  C2022    1.0000 0.10275  0.37460  0.77950  Biso   1.000  C
  H1928    1.0000 0.09850  0.35800  0.75890  Biso   1.000  H
  H1929    1.0000 0.11180  0.35470  0.79610  Biso   1.000  H
  C2023    1.0000 0.08865  0.38170  0.78720  Biso   1.000  C
  C2024    1.0000 0.09400  0.40760  0.81950  Biso   1.000  C
  H1930    1.0000 0.10180  0.38700  0.83690  Biso   1.000  H
  H1931    1.0000 0.09960  0.43810  0.82010  Biso   1.000  H
  H1932    1.0000 0.08390  0.41390  0.82160  Biso   1.000  H
  O139     1.0000 0.16749  0.00040  0.80520  Biso   1.000  O
  O140     1.0000 0.16677  0.93730  0.72760  Biso   1.000  O
  O141     1.0000 0.19801  0.04200  0.78540  Biso   1.000  O
  N277     1.0000 0.14337  0.12520  0.88240  Biso   1.000  N
  N278     1.0000 0.14790  0.06920  0.84000  Biso   1.000  N
  N279     1.0000 0.12545  0.82040  0.60290  Biso   1.000  N
  N280     1.0000 0.14622  0.88100  0.65270  Biso   1.000  N
  N281     1.0000 0.22759  0.24060  0.77440  Biso   1.000  N
  N282     1.0000 0.22050  0.14840  0.78760  Biso   1.000  N
  C2025    1.0000 0.14029  0.15400  0.90340  Biso   1.000  C
  C2026    1.0000 0.15301  0.17840  0.92860  Biso   1.000  C
  H1933    1.0000 0.16430  0.17600  0.93240  Biso   1.000  H
  C2027    1.0000 0.14942  0.20650  0.94840  Biso   1.000  C
  H1934    1.0000 0.15830  0.22260  0.96590  Biso   1.000  H
  C2028    1.0000 0.13325  0.21100  0.94300  Biso   1.000  C
  C2029    1.0000 0.12042  0.18760  0.91750  Biso   1.000  C
  H1935    1.0000 0.10910  0.19110  0.91320  Biso   1.000  H
  C2030    1.0000 0.12405  0.15830  0.89730  Biso   1.000  C
  H1936    1.0000 0.11520  0.14210  0.87980  Biso   1.000  H
  C2031    1.0000 0.12920  0.24240  0.96400  Biso   1.000  C
  H1937    1.0000 0.13420  0.27430  0.96600  Biso   1.000  H
  H1938    1.0000 0.11690  0.24550  0.95470  Biso   1.000  H
  H1939    1.0000 0.13380  0.22770  0.98510  Biso   1.000  H
  C2032    1.0000 0.15678  0.10010  0.89210  Biso   1.000  C
  H1940    1.0000 0.16490  0.10070  0.91400  Biso   1.000  H
  C2033    1.0000 0.16010  0.07080  0.87090  Biso   1.000  C
  C2034    1.0000 0.17528  0.04760  0.88180  Biso   1.000  C
  H1941    1.0000 0.18360  0.04980  0.90350  Biso   1.000  H
  C2035    1.0000 0.17840  0.02090  0.86110  Biso   1.000  C
  H1942    1.0000 0.18840  0.00220  0.86830  Biso   1.000  H
  C2036    1.0000 0.16651  0.02260  0.82970  Biso   1.000  C
  C2037    1.0000 0.15140  0.04440  0.82040  Biso   1.000  C
  H1943    1.0000 0.14290  0.04180  0.79890  Biso   1.000  H
  C2038    1.0000 0.18277  0.97630  0.81160  Biso   1.000  C
  H1944    1.0000 0.19270  0.99570  0.82600  Biso   1.000  H
  H1945    1.0000 0.18350  0.94470  0.82160  Biso   1.000  H
  C2039    1.0000 0.11496  0.78830  0.57690  Biso   1.000  C
  C2040    1.0000 0.09920  0.77390  0.57060  Biso   1.000  C
  H1946    1.0000 0.09420  0.78750  0.58220  Biso   1.000  H
  C2041    1.0000 0.09030  0.74000  0.54760  Biso   1.000  C
  H1947    1.0000 0.08020  0.72620  0.54590  Biso   1.000  H
  C2042    1.0000 0.09620  0.72610  0.52690  Biso   1.000  C
  C2043    1.0000 0.11150  0.74080  0.53270  Biso   1.000  C
  H1948    1.0000 0.11560  0.73080  0.51890  Biso   1.000  H
  C2044    1.0000 0.12190  0.77110  0.55920  Biso   1.000  C
  H1949    1.0000 0.13320  0.77890  0.56430  Biso   1.000  H
  C2045    1.0000 0.08520  0.69300  0.49850  Biso   1.000  C
  H1950    1.0000 0.08290  0.66300  0.50620  Biso   1.000  H
  H1951    1.0000 0.07460  0.70930  0.48430  Biso   1.000  H
  H1952    1.0000 0.09130  0.68590  0.48690  Biso   1.000  H
  C2046    1.0000 0.12390  0.82200  0.62770  Biso   1.000  C
  H1953    1.0000 0.11540  0.80270  0.62840  Biso   1.000  H
  C2047    1.0000 0.13460  0.85220  0.65540  Biso   1.000  C
  C2048    1.0000 0.13220  0.85500  0.68110  Biso   1.000  C
  H1954    1.0000 0.12290  0.83880  0.68080  Biso   1.000  H
  C2049    1.0000 0.14310  0.88110  0.70780  Biso   1.000  C
  H1955    1.0000 0.14250  0.87960  0.72680  Biso   1.000  H
  C2050    1.0000 0.15501  0.90930  0.70530  Biso   1.000  C
  C2051    1.0000 0.15634  0.90690  0.67770  Biso   1.000  C
  H1956    1.0000 0.16500  0.92500  0.67680  Biso   1.000  H
  C2052    1.0000 0.16654  0.94170  0.75750  Biso   1.000  C
  H1957    1.0000 0.15620  0.95900  0.75420  Biso   1.000  H
  H1958    1.0000 0.16670  0.90950  0.76630  Biso   1.000  H
  C2053    1.0000 0.23170  0.28450  0.76400  Biso   1.000  C
  C2054    1.0000 0.23070  0.28710  0.73500  Biso   1.000  C
  H1959    1.0000 0.22680  0.26030  0.72110  Biso   1.000  H
  C2055    1.0000 0.23530  0.32860  0.72600  Biso   1.000  C
  H1960    1.0000 0.23430  0.33050  0.70550  Biso   1.000  H
  C2056    1.0000 0.24140  0.36790  0.74620  Biso   1.000  C
  C2057    1.0000 0.24170  0.36560  0.77410  Biso   1.000  C
  H1961    1.0000 0.24510  0.39290  0.78760  Biso   1.000  H
  C2058    1.0000 0.23690  0.32350  0.78350  Biso   1.000  C
  H1962    1.0000 0.23740  0.32210  0.80350  Biso   1.000  H
  C2059    1.0000 0.24630  0.41500  0.73520  Biso   1.000  C
  H1963    1.0000 0.25680  0.41010  0.73460  Biso   1.000  H
  H1964    1.0000 0.23720  0.42360  0.71390  Biso   1.000  H
  H1965    1.0000 0.24780  0.44100  0.75000  Biso   1.000  H
  C2060    1.0000 0.21367  0.22150  0.75610  Biso   1.000  C
  H1966    1.0000 0.20590  0.23840  0.73760  Biso   1.000  H
  C2061    1.0000 0.20894  0.17350  0.76230  Biso   1.000  C
  C2062    1.0000 0.19320  0.15540  0.74440  Biso   1.000  C
  H1967    1.0000 0.18520  0.17400  0.72710  Biso   1.000  H
  C2063    1.0000 0.18840  0.11050  0.75010  Biso   1.000  C
  H1968    1.0000 0.17750  0.09730  0.73670  Biso   1.000  H
  C2064    1.0000 0.20030  0.08640  0.77630  Biso   1.000  C
  C2065    1.0000 0.21619  0.10710  0.79390  Biso   1.000  C
  H1969    1.0000 0.22440  0.08990  0.81180  Biso   1.000  H
  C2066    1.0000 0.18164  0.01930  0.76530  Biso   1.000  C
  H1970    1.0000 0.17240  0.03900  0.76470  Biso   1.000  H
  H1971    1.0000 0.17970  0.01570  0.74340  Biso   1.000  H
  C2067    1.0000 0.18222  0.96970  0.77980  Biso   1.000  C
  C2068    1.0000 0.19816  0.94230  0.78520  Biso   1.000  C
  H1972    1.0000 0.19760  0.90920  0.79150  Biso   1.000  H
  H1973    1.0000 0.19880  0.94220  0.76550  Biso   1.000  H
  H1974    1.0000 0.20820  0.95820  0.80190  Biso   1.000  H
  O142     1.0000 0.13593  0.94200  0.48490  Biso   1.000  O
  O143     1.0000 0.09933  0.01070  0.40770  Biso   1.000  O
  O144     1.0000 0.14987  0.04150  0.46170  Biso   1.000  O
  N283     1.0000 0.16443  0.81970  0.60840  Biso   1.000  N
  N284     1.0000 0.14710  0.87800  0.55610  Biso   1.000  N
  N285     1.0000 0.02611  0.07690  0.36670  Biso   1.000  N
  N286     1.0000 0.05914  0.06310  0.38200  Biso   1.000  N
  N287     1.0000 0.19613  0.21860  0.52630  Biso   1.000  N
  N288     1.0000 0.17964  0.13670  0.49330  Biso   1.000  N
  C2069    1.0000 0.17132  0.78570  0.63340  Biso   1.000  C
  C2070    1.0000 0.17050  0.73780  0.62710  Biso   1.000  C
  H1975    1.0000 0.16540  0.72730  0.60570  Biso   1.000  H
  C2071    1.0000 0.17700  0.70380  0.65110  Biso   1.000  C
  H1976    1.0000 0.17660  0.67060  0.64610  Biso   1.000  H
  C2072    1.0000 0.18400  0.71820  0.68240  Biso   1.000  C
  C2073    1.0000 0.18500  0.76670  0.68850  Biso   1.000  C
  H1977    1.0000 0.19050  0.77750  0.70980  Biso   1.000  H
  C2074    1.0000 0.17800  0.80120  0.66330  Biso   1.000  C
  H1978    1.0000 0.17810  0.83450  0.66780  Biso   1.000  H
  C2075    1.0000 0.19100  0.68010  0.70760  Biso   1.000  C
  H1979    1.0000 0.19590  0.69530  0.72850  Biso   1.000  H
  H1980    1.0000 0.18200  0.65820  0.70500  Biso   1.000  H
  H1981    1.0000 0.19980  0.66200  0.70580  Biso   1.000  H
  C2076    1.0000 0.16660  0.81490  0.58420  Biso   1.000  C
  H1982    1.0000 0.17400  0.79050  0.58460  Biso   1.000  H
  C2077    1.0000 0.15826  0.84520  0.55630  Biso   1.000  C
  C2078    1.0000 0.16271  0.84340  0.53310  Biso   1.000  C
  H1983    1.0000 0.17060  0.82010  0.53410  Biso   1.000  H
  C2079    1.0000 0.15564  0.87560  0.50790  Biso   1.000  C
  H1984    1.0000 0.15880  0.87590  0.49190  Biso   1.000  H
  C2080    1.0000 0.14383  0.90690  0.50750  Biso   1.000  C
  C2081    1.0000 0.14010  0.90760  0.53160  Biso   1.000  C
  H1985    1.0000 0.13210  0.93050  0.53080  Biso   1.000  H
  C2082    1.0000 0.13905  0.94250  0.45800  Biso   1.000  C
  H1986    1.0000 0.15110  0.94920  0.46520  Biso   1.000  H
  H1987    1.0000 0.13610  0.91110  0.44700  Biso   1.000  H
  C2083    1.0000 0.00850  0.08550  0.35700  Biso   1.000  C
  C2084    1.0000 0.99980  0.11860  0.33420  Biso   1.000  C
  H1988    1.0000 0.00520  0.13430  0.32420  Biso   1.000  H
  C2085    1.0000 0.98330  0.13010  0.32520  Biso   1.000  C
  H1989    1.0000 0.97800  0.15620  0.31110  Biso   1.000  H
  C2086    1.0000 0.97450  0.10390  0.33660  Biso   1.000  C
  C2087    1.0000 0.98280  0.06910  0.35790  Biso   1.000  C
  H1990    1.0000 0.97660  0.05030  0.36520  Biso   1.000  H
  C2088    1.0000 0.00040  0.05880  0.37020  Biso   1.000  C
  H1991    1.0000 0.00610  0.03540  0.38630  Biso   1.000  H
  C2089    1.0000 0.95620  0.11740  0.32800  Biso   1.000  C
  H1992    1.0000 0.95480  0.11440  0.34680  Biso   1.000  H
  H1993    1.0000 0.95400  0.15070  0.32030  Biso   1.000  H
  H1994    1.0000 0.94830  0.09580  0.31140  Biso   1.000  H
  C2090    1.0000 0.03247  0.03480  0.37450  Biso   1.000  C
  H1995    1.0000 0.02560  0.00940  0.37500  Biso   1.000  H
  C2091    1.0000 0.04998  0.02400  0.38270  Biso   1.000  C
  C2092    1.0000 0.05697  0.97930  0.39290  Biso   1.000  C
  H1996    1.0000 0.05020  0.95360  0.39330  Biso   1.000  H
  C2093    1.0000 0.07393  0.97170  0.40260  Biso   1.000  C
  H1997    1.0000 0.07920  0.94180  0.41120  Biso   1.000  H
  C2094    1.0000 0.08296  0.01010  0.39920  Biso   1.000  C
  C2095    1.0000 0.07520  0.05560  0.38970  Biso   1.000  C
  H1998    1.0000 0.08170  0.08180  0.38870  Biso   1.000  H
  C2096    1.0000 0.10962  0.97060  0.42610  Biso   1.000  C
  H1999    1.0000 0.10830  0.96550  0.44500  Biso   1.000  H
  H2000    1.0000 0.10610  0.94080  0.41320  Biso   1.000  H
  C2097    1.0000 0.20370  0.26420  0.54100  Biso   1.000  C
  C2098    1.0000 0.19600  0.30710  0.52850  Biso   1.000  C
  H2001    1.0000 0.18520  0.30730  0.51020  Biso   1.000  H
  C2099    1.0000 0.20360  0.34980  0.54190  Biso   1.000  C
  H2002    1.0000 0.19800  0.37920  0.53290  Biso   1.000  H
  C2100    1.0000 0.21950  0.35060  0.56850  Biso   1.000  C
  C2101    1.0000 0.22700  0.30880  0.58060  Biso   1.000  C
  H2003    1.0000 0.23780  0.30870  0.59920  Biso   1.000  H
  C2102    1.0000 0.21950  0.26480  0.56650  Biso   1.000  C
  H2004    1.0000 0.22550  0.23550  0.57470  Biso   1.000  H
  C2103    1.0000 0.22810  0.39950  0.58310  Biso   1.000  C
  H2005    1.0000 0.23260  0.39860  0.60610  Biso   1.000  H
  H2006    1.0000 0.23730  0.40530  0.57850  Biso   1.000  H
  H2007    1.0000 0.21970  0.42550  0.57400  Biso   1.000  H
  C2104    1.0000 0.18066  0.21300  0.51820  Biso   1.000  C
  H2008    1.0000 0.17480  0.23800  0.52210  Biso   1.000  H
  C2105    1.0000 0.17167  0.16880  0.50270  Biso   1.000  C
  C2106    1.0000 0.15615  0.16120  0.49770  Biso   1.000  C
  H2009    1.0000 0.15100  0.18390  0.50500  Biso   1.000  H
  C2107    1.0000 0.14720  0.11970  0.48160  Biso   1.000  C
  H2010    1.0000 0.13570  0.11550  0.47600  Biso   1.000  H
  C2108    1.0000 0.15567  0.08570  0.47440  Biso   1.000  C
  C2109    1.0000 0.17214  0.09640  0.48050  Biso   1.000  C
  H2011    1.0000 0.17800  0.07330  0.47500  Biso   1.000  H
  C2110    1.0000 0.13263  0.03100  0.45290  Biso   1.000  C
  H2012    1.0000 0.13120  0.03000  0.47200  Biso   1.000  H
  H2013    1.0000 0.12510  0.05630  0.43860  Biso   1.000  H
  C2111    1.0000 0.12793  0.98220  0.43610  Biso   1.000  C
  C2112    1.0000 0.13050  0.98350  0.40650  Biso   1.000  C
  H2014    1.0000 0.14230  0.99190  0.41310  Biso   1.000  H
  H2015    1.0000 0.12800  0.95190  0.39640  Biso   1.000  H
  H2016    1.0000 0.12300  0.00760  0.39150  Biso   1.000  H
  Cd49     1.0000 0.29328  0.66431  0.99773  Biso   1.000  Cd
  Cd50     1.0000 0.39255  0.00795  0.05405  Biso   1.000  Cd
  Cd51     1.0000 0.34598  0.04839  0.73361  Biso   1.000  Cd
  Cd52     1.0000 0.25255  0.68805  0.68579  Biso   1.000  Cd
  Cd53     1.0000 0.35577  0.37868  0.89758  Biso   1.000  Cd
  Cd54     1.0000 0.45398  0.63650  0.12451  Biso   1.000  Cd
  Cd55     1.0000 0.46622  0.86298  0.89949  Biso   1.000  Cd
  Cd56     1.0000 0.37444  0.62111  0.67284  Biso   1.000  Cd
  O145     1.0000 0.27486  0.56300  0.88560  Biso   1.000  O
  O146     1.0000 0.26108  0.58460  0.79140  Biso   1.000  O
  O147     1.0000 0.29826  0.49750  0.85600  Biso   1.000  O
  N289     1.0000 0.28414  0.60430  0.01960  Biso   1.000  N
  N290     1.0000 0.28068  0.60410  0.95970  Biso   1.000  N
  N291     1.0000 0.23099  0.73950  0.68420  Biso   1.000  N
  N292     1.0000 0.24657  0.66370  0.72520  Biso   1.000  N
  N293     1.0000 0.37452  0.44380  0.91250  Biso   1.000  N
  N294     1.0000 0.33960  0.45040  0.88480  Biso   1.000  N
  C2113    1.0000 0.28460  0.60660  0.04920  Biso   1.000  C
  C2114    1.0000 0.27050  0.59740  0.05210  Biso   1.000  C
  H2017    1.0000 0.26000  0.59030  0.03390  Biso   1.000  H
  C2115    1.0000 0.27160  0.59830  0.08170  Biso   1.000  C
  H2018    1.0000 0.26220  0.58800  0.08380  Biso   1.000  H
  C2116    1.0000 0.28590  0.61360  0.10810  Biso   1.000  C
  C2117    1.0000 0.29980  0.62270  0.10500  Biso   1.000  C
  H2019    1.0000 0.31010  0.63010  0.12340  Biso   1.000  H
  C2118    1.0000 0.29920  0.62140  0.07510  Biso   1.000  C
  H2020    1.0000 0.30870  0.63050  0.07310  Biso   1.000  H
  C2119    1.0000 0.28590  0.62410  0.13900  Biso   1.000  C
  H2021    1.0000 0.28370  0.65830  0.14000  Biso   1.000  H
  H2022    1.0000 0.27720  0.60480  0.14010  Biso   1.000  H
  H2023    1.0000 0.29700  0.61580  0.15680  Biso   1.000  H
  C2120    1.0000 0.27690  0.56870  0.00140  Biso   1.000  C
  H2024    1.0000 0.27280  0.54300  0.00860  Biso   1.000  H
  C2121    1.0000 0.27490  0.56660  0.96950  Biso   1.000  C
  C2122    1.0000 0.26810  0.52690  0.95100  Biso   1.000  C
  H2025    1.0000 0.26400  0.50100  0.95830  Biso   1.000  H
  C2123    1.0000 0.26730  0.52450  0.92170  Biso   1.000  C
  H2026    1.0000 0.26260  0.49720  0.90840  Biso   1.000  H
  C2124    1.0000 0.27330  0.56230  0.91240  Biso   1.000  C
  C2125    1.0000 0.27990  0.60100  0.93140  Biso   1.000  C
  H2027    1.0000 0.28400  0.62700  0.92440  Biso   1.000  H
  C2126    1.0000 0.26890  0.52120  0.86540  Biso   1.000  C
  H2028    1.0000 0.27590  0.49280  0.87650  Biso   1.000  H
  H2029    1.0000 0.25700  0.51440  0.85920  Biso   1.000  H
  C2127    1.0000 0.22263  0.77750  0.66190  Biso   1.000  C
  C2128    1.0000 0.21834  0.77050  0.63100  Biso   1.000  C
  H2030    1.0000 0.22000  0.73960  0.62460  Biso   1.000  H
  C2129    1.0000 0.21170  0.80600  0.60890  Biso   1.000  C
  H2031    1.0000 0.20890  0.79980  0.58760  Biso   1.000  H
  C2130    1.0000 0.20910  0.85150  0.61780  Biso   1.000  C
  C2131    1.0000 0.21260  0.85870  0.64790  Biso   1.000  C
  H2032    1.0000 0.21010  0.88910  0.65370  Biso   1.000  H
  C2132    1.0000 0.21990  0.82180  0.67130  Biso   1.000  C
  H2033    1.0000 0.22280  0.82770  0.69280  Biso   1.000  H
  C2133    1.0000 0.20170  0.89320  0.59410  Biso   1.000  C
  H2034    1.0000 0.19980  0.88270  0.57330  Biso   1.000  H
  H2035    1.0000 0.20960  0.92030  0.60150  Biso   1.000  H
  H2036    1.0000 0.19090  0.90340  0.59250  Biso   1.000  H
  C2134    1.0000 0.22952  0.73570  0.70910  Biso   1.000  C
  H2037    1.0000 0.22280  0.75850  0.71260  Biso   1.000  H
  C2135    1.0000 0.23786  0.69710  0.73240  Biso   1.000  C
  C2136    1.0000 0.23588  0.69310  0.75820  Biso   1.000  C
  H2038    1.0000 0.22880  0.71540  0.76110  Biso   1.000  H
  C2137    1.0000 0.24390  0.65720  0.78080  Biso   1.000  C
  H2039    1.0000 0.24320  0.65590  0.79980  Biso   1.000  H
  C2138    1.0000 0.25290  0.62340  0.77380  Biso   1.000  C
  C2139    1.0000 0.25378  0.62780  0.74570  Biso   1.000  C
  H2040    1.0000 0.25980  0.60400  0.74100  Biso   1.000  H
  C2140    1.0000 0.26020  0.57850  0.82020  Biso   1.000  C
  H2041    1.0000 0.26500  0.60690  0.83410  Biso   1.000  H
  H2042    1.0000 0.24830  0.57430  0.81540  Biso   1.000  H
  C2141    1.0000 0.39262  0.44110  0.92570  Biso   1.000  C
  C2142    1.0000 0.40190  0.46920  0.91670  Biso   1.000  C
  H2043    1.0000 0.39640  0.49320  0.90100  Biso   1.000  H
  C2143    1.0000 0.41910  0.46340  0.92990  Biso   1.000  C
  H2044    1.0000 0.42540  0.48410  0.92390  Biso   1.000  H
  C2144    1.0000 0.42720  0.42780  0.95190  Biso   1.000  C
  C2145    1.0000 0.41840  0.39900  0.96060  Biso   1.000  C
  H2045    1.0000 0.42390  0.37450  0.97590  Biso   1.000  H
  C2146    1.0000 0.40100  0.40540  0.94690  Biso   1.000  C
  H2046    1.0000 0.39470  0.38400  0.95260  Biso   1.000  H
  C2147    1.0000 0.44640  0.42160  0.96710  Biso   1.000  C
  H2047    1.0000 0.44900  0.39830  0.95480  Biso   1.000  H
  H2048    1.0000 0.45160  0.45260  0.96730  Biso   1.000  H
  H2049    1.0000 0.45090  0.40990  0.98880  Biso   1.000  H
  C2148    1.0000 0.36737  0.48420  0.90500  Biso   1.000  C
  H2050    1.0000 0.37430  0.51200  0.90940  Biso   1.000  H
  C2149    1.0000 0.34906  0.49060  0.88990  Biso   1.000  C
  C2150    1.0000 0.34172  0.53530  0.88350  Biso   1.000  C
  H2051    1.0000 0.34860  0.56310  0.88730  Biso   1.000  H
  C2151    1.0000 0.32431  0.54040  0.87140  Biso   1.000  C
  H2052    1.0000 0.31910  0.57120  0.86670  Biso   1.000  H
  C2152    1.0000 0.31512  0.49980  0.86650  Biso   1.000  C
  C2153    1.0000 0.32352  0.45550  0.87320  Biso   1.000  C
  H2053    1.0000 0.31690  0.42720  0.86880  Biso   1.000  H
  C2154    1.0000 0.28896  0.54250  0.84590  Biso   1.000  C
  H2054    1.0000 0.29380  0.56620  0.86340  Biso   1.000  H
  H2055    1.0000 0.28980  0.55590  0.82770  Biso   1.000  H
  C2155    1.0000 0.27064  0.53310  0.83640  Biso   1.000  C
  C2156    1.0000 0.26320  0.49060  0.81240  Biso   1.000  C
  H2056    1.0000 0.26300  0.49930  0.79260  Biso   1.000  H
  H2057    1.0000 0.27020  0.46200  0.82150  Biso   1.000  H
  H2058    1.0000 0.25160  0.48400  0.80820  Biso   1.000  H
  O148     1.0000 0.40226  0.07610  0.95500  Biso   1.000  O
  O149     1.0000 0.39232  0.08720  0.86050  Biso   1.000  O
  O150     1.0000 0.42349  0.00650  0.90780  Biso   1.000  O
  N295     1.0000 0.37220  0.06630  0.04670  Biso   1.000  N
  N296     1.0000 0.38952  0.05980  0.01320  Biso   1.000  N
  N297     1.0000 0.36131  0.08990  0.71350  Biso   1.000  N
  N298     1.0000 0.36991  0.08290  0.77660  Biso   1.000  N
  N299     1.0000 0.44775  0.80090  0.89580  Biso   1.000  N
  N300     1.0000 0.44256  0.89750  0.90240  Biso   1.000  N
  C2157    1.0000 0.36331  0.06560  0.06380  Biso   1.000  C
  C2158    1.0000 0.34619  0.07200  0.05010  Biso   1.000  C
  H2059    1.0000 0.33980  0.07840  0.02810  Biso   1.000  H
  C2159    1.0000 0.33800  0.06920  0.06810  Biso   1.000  C
  H2060    1.0000 0.32630  0.07650  0.05870  Biso   1.000  H
  C2160    1.0000 0.34680  0.05600  0.09920  Biso   1.000  C
  C2161    1.0000 0.36400  0.05110  0.11340  Biso   1.000  C
  H2061    1.0000 0.37050  0.04600  0.13560  Biso   1.000  H
  C2162    1.0000 0.37240  0.05370  0.09490  Biso   1.000  C
  H2062    1.0000 0.38420  0.04710  0.10420  Biso   1.000  H
  C2163    1.0000 0.33830  0.04700  0.11890  Biso   1.000  C
  H2063    1.0000 0.32600  0.04950  0.10550  Biso   1.000  H
  H2064    1.0000 0.34110  0.01470  0.12810  Biso   1.000  H
  H2065    1.0000 0.34210  0.07090  0.13590  Biso   1.000  H
  C2164    1.0000 0.36812  0.09380  0.02250  Biso   1.000  C
  H2066    1.0000 0.35950  0.11720  0.01720  Biso   1.000  H
  C2165    1.0000 0.37623  0.09030  0.00300  Biso   1.000  C
  C2166    1.0000 0.37086  0.11830  0.97650  Biso   1.000  C
  H2067    1.0000 0.36170  0.14020  0.97030  Biso   1.000  H
  C2167    1.0000 0.37902  0.11370  0.95910  Biso   1.000  C
  H2068    1.0000 0.37540  0.13190  0.94030  Biso   1.000  H
  C2168    1.0000 0.39233  0.08300  0.96900  Biso   1.000  C
  C2169    1.0000 0.39749  0.05730  0.99620  Biso   1.000  C
  H2069    1.0000 0.40710  0.03690  0.00320  Biso   1.000  H
  C2170    1.0000 0.39812  0.09690  0.92480  Biso   1.000  C
  H2070    1.0000 0.38670  0.08660  0.90840  Biso   1.000  H
  H2071    1.0000 0.39830  0.13240  0.92610  Biso   1.000  H
  C2171    1.0000 0.35639  0.08840  0.68070  Biso   1.000  C
  C2172    1.0000 0.33998  0.09520  0.65840  Biso   1.000  C
  H2072    1.0000 0.33200  0.10310  0.66500  Biso   1.000  H
  C2173    1.0000 0.33460  0.09100  0.62660  Biso   1.000  C
  H2073    1.0000 0.32310  0.09620  0.61150  Biso   1.000  H
  C2174    1.0000 0.34610  0.07920  0.61660  Biso   1.000  C
  C2175    1.0000 0.36250  0.07290  0.63860  Biso   1.000  C
  H2074    1.0000 0.37040  0.06500  0.63170  Biso   1.000  H
  C2176    1.0000 0.36839  0.07750  0.67160  Biso   1.000  C
  H2075    1.0000 0.38000  0.07340  0.68680  Biso   1.000  H
  C2177    1.0000 0.34130  0.07360  0.58110  Biso   1.000  C
  H2076    1.0000 0.33180  0.09500  0.56810  Biso   1.000  H
  H2077    1.0000 0.35110  0.08200  0.57850  Biso   1.000  H
  H2078    1.0000 0.33800  0.04020  0.57440  Biso   1.000  H
  C2178    1.0000 0.37530  0.10750  0.73500  Biso   1.000  C
  H2079    1.0000 0.38260  0.12230  0.72870  Biso   1.000  H
  C2179    1.0000 0.38052  0.10580  0.76880  Biso   1.000  C
  C2180    1.0000 0.39590  0.12190  0.79110  Biso   1.000  C
  H2080    1.0000 0.40350  0.13520  0.78480  Biso   1.000  H
  C2181    1.0000 0.40070  0.11900  0.82320  Biso   1.000  C
  H2081    1.0000 0.41120  0.13160  0.83900  Biso   1.000  H
  C2182    1.0000 0.38952  0.09680  0.83130  Biso   1.000  C
  C2183    1.0000 0.37421  0.07940  0.80710  Biso   1.000  C
  H2082    1.0000 0.36660  0.06440  0.81250  Biso   1.000  H
  C2184    1.0000 0.40875  0.10170  0.88580  Biso   1.000  C
  H2083    1.0000 0.41770  0.09130  0.88100  Biso   1.000  H
  H2084    1.0000 0.40920  0.13720  0.88790  Biso   1.000  H
  C2185    1.0000 0.45240  0.75110  0.89700  Biso   1.000  C
  C2186    1.0000 0.45350  0.72180  0.92060  Biso   1.000  C
  H2085    1.0000 0.45120  0.73440  0.93640  Biso   1.000  H
  C2187    1.0000 0.45780  0.67470  0.92170  Biso   1.000  C
  H2086    1.0000 0.45770  0.65430  0.93730  Biso   1.000  H
  C2188    1.0000 0.46240  0.65630  0.90080  Biso   1.000  C
  C2189    1.0000 0.46150  0.68450  0.87780  Biso   1.000  C
  H2087    1.0000 0.46500  0.67240  0.86340  Biso   1.000  H
  C2190    1.0000 0.45560  0.73190  0.87460  Biso   1.000  C
  H2088    1.0000 0.45390  0.75060  0.85680  Biso   1.000  H
  C2191    1.0000 0.46860  0.60340  0.90510  Biso   1.000  C
  H2089    1.0000 0.46560  0.58960  0.88440  Biso   1.000  H
  H2090    1.0000 0.48090  0.60250  0.91860  Biso   1.000  H
  H2091    1.0000 0.46320  0.58470  0.91490  Biso   1.000  H
  C2192    1.0000 0.43600  0.81250  0.90130  Biso   1.000  C
  H2092    1.0000 0.42960  0.78810  0.90450  Biso   1.000  H
  C2193    1.0000 0.43200  0.86390  0.90280  Biso   1.000  C
  C2194    1.0000 0.41950  0.87520  0.90980  Biso   1.000  C
  H2093    1.0000 0.41360  0.85050  0.91390  Biso   1.000  H
  C2195    1.0000 0.41538  0.92370  0.91070  Biso   1.000  C
  H2094    1.0000 0.40610  0.93240  0.91370  Biso   1.000  H
  C2196    1.0000 0.42511  0.95780  0.90720  Biso   1.000  C
  C2197    1.0000 0.43862  0.94220  0.90250  Biso   1.000  C
  H2095    1.0000 0.44520  0.96590  0.89940  Biso   1.000  H
  C2198    1.0000 0.41016  0.02370  0.91390  Biso   1.000  C
  H2096    1.0000 0.39890  0.01440  0.89630  Biso   1.000  H
  H2097    1.0000 0.41150  0.00960  0.93370  Biso   1.000  H
  C2199    1.0000 0.41165  0.07870  0.91670  Biso   1.000  C
  C2200    1.0000 0.42979  0.09320  0.94280  Biso   1.000  C
  H2098    1.0000 0.43020  0.12800  0.94630  Biso   1.000  H
  H2099    1.0000 0.43250  0.07640  0.96260  Biso   1.000  H
  H2100    1.0000 0.43800  0.08430  0.93600  Biso   1.000  H
  O151     1.0000 0.31176  0.90440  0.64240  Biso   1.000  O
  O152     1.0000 0.28521  0.78010  0.62880  Biso   1.000  O
  O153     1.0000 0.32564  0.76570  0.64330  Biso   1.000  O
  N301     1.0000 0.32250  0.09860  0.71590  Biso   1.000  N
  N302     1.0000 0.32360  0.01200  0.68790  Biso   1.000  N
  N303     1.0000 0.23544  0.64080  0.64260  Biso   1.000  N
  N304     1.0000 0.25842  0.70800  0.64590  Biso   1.000  N
  N305     1.0000 0.38533  0.62960  0.72890  Biso   1.000  N
  N306     1.0000 0.35951  0.68280  0.68170  Biso   1.000  N
  C2201    1.0000 0.32280  0.14740  0.72440  Biso   1.000  C
  C2202    1.0000 0.33580  0.16470  0.75260  Biso   1.000  C
  H2101    1.0000 0.34390  0.14290  0.76720  Biso   1.000  H
  C2203    1.0000 0.33710  0.21360  0.75990  Biso   1.000  C
  H2102    1.0000 0.34620  0.22500  0.77920  Biso   1.000  H
  C2204    1.0000 0.32530  0.24530  0.73910  Biso   1.000  C
  C2205    1.0000 0.31160  0.22750  0.71230  Biso   1.000  C
  H2103    1.0000 0.30320  0.24900  0.69800  Biso   1.000  H
  C2206    1.0000 0.30990  0.17730  0.70570  Biso   1.000  C
  H2104    1.0000 0.29990  0.16480  0.68850  Biso   1.000  H
  C2207    1.0000 0.32550  0.29820  0.74680  Biso   1.000  C
  H2105    1.0000 0.32770  0.31730  0.73210  Biso   1.000  H
  H2106    1.0000 0.31460  0.30730  0.74480  Biso   1.000  H
  H2107    1.0000 0.33450  0.30410  0.76860  Biso   1.000  H
  C2208    1.0000 0.30910  0.07710  0.69610  Biso   1.000  C
  H2108    1.0000 0.29860  0.09260  0.68990  Biso   1.000  H
  C2209    1.0000 0.30873  0.03060  0.68220  Biso   1.000  C
  C2210    1.0000 0.29400  0.00490  0.66630  Biso   1.000  C
  H2109    1.0000 0.28360  0.01710  0.66400  Biso   1.000  H
  C2211    1.0000 0.29460  0.96120  0.65390  Biso   1.000  C
  H2110    1.0000 0.28470  0.94190  0.64360  Biso   1.000  H
  C2212    1.0000 0.30941  0.94540  0.65620  Biso   1.000  C
  C2213    1.0000 0.32369  0.96970  0.67500  Biso   1.000  C
  H2111    1.0000 0.33420  0.95620  0.67930  Biso   1.000  H
  C2214    1.0000 0.29756  0.87300  0.62580  Biso   1.000  C
  H2112    1.0000 0.29220  0.86590  0.63890  Biso   1.000  H
  H2113    1.0000 0.28910  0.88820  0.60580  Biso   1.000  H
  C2215    1.0000 0.22316  0.60520  0.64120  Biso   1.000  C
  C2216    1.0000 0.21270  0.61650  0.65300  Biso   1.000  C
  H2114    1.0000 0.21380  0.64690  0.66270  Biso   1.000  H
  C2217    1.0000 0.20060  0.58460  0.65120  Biso   1.000  C
  H2115    1.0000 0.19300  0.59380  0.65840  Biso   1.000  H
  C2218    1.0000 0.19970  0.53890  0.63880  Biso   1.000  C
  C2219    1.0000 0.21110  0.52670  0.62990  Biso   1.000  C
  H2116    1.0000 0.21130  0.49440  0.62360  Biso   1.000  H
  C2220    1.0000 0.22310  0.55990  0.62950  Biso   1.000  C
  H2117    1.0000 0.23060  0.55130  0.62170  Biso   1.000  H
  C2221    1.0000 0.18700  0.50070  0.63750  Biso   1.000  C
  H2118    1.0000 0.17570  0.50790  0.61990  Biso   1.000  H
  H2119    1.0000 0.19060  0.46880  0.63450  Biso   1.000  H
  H2120    1.0000 0.18660  0.50120  0.65740  Biso   1.000  H
  C2222    1.0000 0.23763  0.64590  0.61850  Biso   1.000  C
  H2121    1.0000 0.23130  0.62670  0.60020  Biso   1.000  H
  C2223    1.0000 0.24984  0.68120  0.61880  Biso   1.000  C
  C2224    1.0000 0.25218  0.68800  0.59330  Biso   1.000  C
  H2122    1.0000 0.24580  0.66960  0.57460  Biso   1.000  H
  C2225    1.0000 0.26382  0.72160  0.59390  Biso   1.000  C
  H2123    1.0000 0.26560  0.72630  0.57630  Biso   1.000  H
  C2226    1.0000 0.27279  0.74800  0.62200  Biso   1.000  C
  C2227    1.0000 0.26965  0.73940  0.64730  Biso   1.000  C
  H2124    1.0000 0.27600  0.75700  0.66640  Biso   1.000  H
  C2228    1.0000 0.28992  0.78990  0.60480  Biso   1.000  C
  H2125    1.0000 0.29370  0.76010  0.59900  Biso   1.000  H
  H2126    1.0000 0.28020  0.80310  0.58560  Biso   1.000  H
  C2229    1.0000 0.40070  0.60770  0.75200  Biso   1.000  C
  C2230    1.0000 0.41550  0.63280  0.77050  Biso   1.000  C
  H2127    1.0000 0.41580  0.66660  0.76820  Biso   1.000  H
  C2231    1.0000 0.42990  0.60800  0.79280  Biso   1.000  C
  H2128    1.0000 0.44010  0.62530  0.80520  Biso   1.000  H
  C2232    1.0000 0.42950  0.55880  0.79670  Biso   1.000  C
  C2233    1.0000 0.41510  0.53470  0.77860  Biso   1.000  C
  H2129    1.0000 0.41460  0.50110  0.78140  Biso   1.000  H
  C2234    1.0000 0.40110  0.55910  0.75550  Biso   1.000  C
  H2130    1.0000 0.39130  0.54100  0.74160  Biso   1.000  H
  C2235    1.0000 0.44540  0.53090  0.82080  Biso   1.000  C
  H2131    1.0000 0.45130  0.54930  0.84050  Biso   1.000  H
  H2132    1.0000 0.44210  0.49950  0.82510  Biso   1.000  H
  H2133    1.0000 0.45310  0.52630  0.81190  Biso   1.000  H
  C2236    1.0000 0.38031  0.66740  0.73600  Biso   1.000  C
  H2134    1.0000 0.38600  0.67820  0.75740  Biso   1.000  H
  C2237    1.0000 0.36588  0.69550  0.71250  Biso   1.000  C
  C2238    1.0000 0.35930  0.73160  0.72200  Biso   1.000  C
  H2135    1.0000 0.36420  0.73950  0.74380  Biso   1.000  H
  C2239    1.0000 0.34550  0.75710  0.69960  Biso   1.000  C
  H2136    1.0000 0.34080  0.78290  0.70570  Biso   1.000  H
  C2240    1.0000 0.33887  0.74420  0.66870  Biso   1.000  C
  C2241    1.0000 0.34685  0.70730  0.66080  Biso   1.000  C
  H2137    1.0000 0.34270  0.70020  0.63900  Biso   1.000  H
  C2242    1.0000 0.31900  0.80880  0.64970  Biso   1.000  C
  H2138    1.0000 0.31510  0.80190  0.66520  Biso   1.000  H
  H2139    1.0000 0.32790  0.83370  0.65880  Biso   1.000  H
  C2243    1.0000 0.30432  0.82670  0.61880  Biso   1.000  C
  C2244    1.0000 0.31059  0.83500  0.59450  Biso   1.000  C
  H2140    1.0000 0.30120  0.84720  0.57470  Biso   1.000  H
  H2141    1.0000 0.31980  0.85860  0.60300  Biso   1.000  H
  H2142    1.0000 0.31470  0.80460  0.59050  Biso   1.000  H
  O154     1.0000 0.34859  0.74960  0.10050  Biso   1.000  O
  O155     1.0000 0.38569  0.84680  0.11660  Biso   1.000  O
  O156     1.0000 0.39745  0.72940  0.12180  Biso   1.000  O
  N307     1.0000 0.27373  0.72420  0.99340  Biso   1.000  N
  N308     1.0000 0.30726  0.71740  0.04070  Biso   1.000  N
  N309     1.0000 0.41576  0.03860  0.09960  Biso   1.000  N
  N310     1.0000 0.39795  0.95690  0.09660  Biso   1.000  N
  N311     1.0000 0.44167  0.64000  0.06830  Biso   1.000  N
  N312     1.0000 0.42674  0.67290  0.10320  Biso   1.000  N
  C2245    1.0000 0.25668  0.72770  0.96950  Biso   1.000  C
  C2246    1.0000 0.24900  0.77120  0.95640  Biso   1.000  C
  H2143    1.0000 0.25510  0.80040  0.96420  Biso   1.000  H
  C2247    1.0000 0.23240  0.77220  0.93210  Biso   1.000  C
  H2144    1.0000 0.22690  0.80220  0.92460  Biso   1.000  H
  C2248    1.0000 0.22390  0.73060  0.91870  Biso   1.000  C
  C2249    1.0000 0.23140  0.68730  0.93210  Biso   1.000  C
  H2145    1.0000 0.22530  0.65820  0.92380  Biso   1.000  H
  C2250    1.0000 0.24799  0.68580  0.95810  Biso   1.000  C
  H2146    1.0000 0.25300  0.65590  0.96740  Biso   1.000  H
  C2251    1.0000 0.20640  0.73060  0.88990  Biso   1.000  C
  H2147    1.0000 0.20190  0.69780  0.88580  Biso   1.000  H
  H2148    1.0000 0.19900  0.75170  0.89380  Biso   1.000  H
  H2149    1.0000 0.20710  0.74230  0.87150  Biso   1.000  H
  C2252    1.0000 0.28079  0.75880  0.01340  Biso   1.000  C
  H2150    1.0000 0.27400  0.78560  0.01240  Biso   1.000  H
  C2253    1.0000 0.29848  0.75880  0.03730  Biso   1.000  C
  C2254    1.0000 0.30620  0.79890  0.05540  Biso   1.000  C
  H2151    1.0000 0.29970  0.82670  0.05350  Biso   1.000  H
  C2255    1.0000 0.32320  0.79890  0.07630  Biso   1.000  C
  H2152    1.0000 0.32880  0.82690  0.08800  Biso   1.000  H
  C2256    1.0000 0.33186  0.75720  0.07950  Biso   1.000  C
  C2257    1.0000 0.32370  0.71770  0.06210  Biso   1.000  C
  H2153    1.0000 0.33000  0.68900  0.06520  Biso   1.000  H
  C2258    1.0000 0.35924  0.79120  0.11450  Biso   1.000  C
  H2154    1.0000 0.35740  0.81500  0.09790  Biso   1.000  H
  H2155    1.0000 0.35650  0.80660  0.12990  Biso   1.000  H
  C2259    1.0000 0.42530  0.08040  0.09960  Biso   1.000  C
  C2260    1.0000 0.41740  0.11910  0.08100  Biso   1.000  C
  H2156    1.0000 0.40540  0.11880  0.06840  Biso   1.000  H
  C2261    1.0000 0.42620  0.15880  0.07980  Biso   1.000  C
  H2157    1.0000 0.42040  0.18490  0.06620  Biso   1.000  H
  C2262    1.0000 0.44370  0.16060  0.09840  Biso   1.000  C
  C2263    1.0000 0.45140  0.12310  0.11760  Biso   1.000  C
  H2158    1.0000 0.46340  0.12410  0.13040  Biso   1.000  H
  C2264    1.0000 0.44270  0.08190  0.11980  Biso   1.000  C
  H2159    1.0000 0.44850  0.05670  0.13430  Biso   1.000  H
  C2265    1.0000 0.45470  0.20090  0.09560  Biso   1.000  C
  H2160    1.0000 0.44740  0.22380  0.07920  Biso   1.000  H
  H2161    1.0000 0.46090  0.21770  0.11600  Biso   1.000  H
  H2162    1.0000 0.46280  0.18680  0.09000  Biso   1.000  H
  C2266    1.0000 0.42000  0.01570  0.12560  Biso   1.000  C
  H2163    1.0000 0.42890  0.02760  0.14510  Biso   1.000  H
  C2267    1.0000 0.41122  0.97120  0.12510  Biso   1.000  C
  C2268    1.0000 0.41530  0.94590  0.15230  Biso   1.000  C
  H2164    1.0000 0.42410  0.95740  0.17190  Biso   1.000  H
  C2269    1.0000 0.40689  0.90390  0.15170  Biso   1.000  C
  H2165    1.0000 0.40940  0.88690  0.17060  Biso   1.000  H
  C2270    1.0000 0.39452  0.88770  0.12210  Biso   1.000  C
  C2271    1.0000 0.39004  0.91610  0.09530  Biso   1.000  C
  H2166    1.0000 0.38110  0.90580  0.07550  Biso   1.000  H
  C2272    1.0000 0.38962  0.81650  0.14380  Biso   1.000  C
  H2167    1.0000 0.40150  0.80530  0.15380  Biso   1.000  H
  H2168    1.0000 0.38790  0.83440  0.15980  Biso   1.000  H
  C2273    1.0000 0.44850  0.62060  0.04930  Biso   1.000  C
  C2274    1.0000 0.43910  0.59860  0.02070  Biso   1.000  C
  H2169    1.0000 0.42720  0.59600  0.01250  Biso   1.000  H
  C2275    1.0000 0.44620  0.58020  0.00340  Biso   1.000  C
  H2170    1.0000 0.43940  0.56520  0.98350  Biso   1.000  H
  C2276    1.0000 0.46370  0.58390  0.01580  Biso   1.000  C
  C2277    1.0000 0.47320  0.60670  0.04360  Biso   1.000  C
  H2171    1.0000 0.48500  0.61120  0.05140  Biso   1.000  H
  C2278    1.0000 0.46550  0.62340  0.06080  Biso   1.000  C
  H2172    1.0000 0.47240  0.63710  0.08120  Biso   1.000  H
  C2279    1.0000 0.47140  0.56320  0.99610  Biso   1.000  C
  H2173    1.0000 0.46250  0.54820  0.97680  Biso   1.000  H
  H2174    1.0000 0.48000  0.53900  0.00860  Biso   1.000  H
  H2175    1.0000 0.47670  0.58910  0.99030  Biso   1.000  H
  C2280    1.0000 0.42650  0.65190  0.05450  Biso   1.000  C
  H2176    1.0000 0.42020  0.64880  0.03210  Biso   1.000  H
  C2281    1.0000 0.41776  0.67030  0.07130  Biso   1.000  C
  C2282    1.0000 0.40139  0.68500  0.05480  Biso   1.000  C
  H2177    1.0000 0.39530  0.68250  0.03240  Biso   1.000  H
  C2283    1.0000 0.39367  0.70350  0.07110  Biso   1.000  C
  H2178    1.0000 0.38210  0.71290  0.06010  Biso   1.000  H
  C2284    1.0000 0.40279  0.70820  0.10300  Biso   1.000  C
  C2285    1.0000 0.41983  0.69260  0.11810  Biso   1.000  C
  H2179    1.0000 0.42650  0.69680  0.14030  Biso   1.000  H
  C2286    1.0000 0.38012  0.74650  0.10640  Biso   1.000  C
  H2180    1.0000 0.37800  0.76790  0.08850  Biso   1.000  H
  H2181    1.0000 0.37220  0.71900  0.09810  Biso   1.000  H
  C2287    1.0000 0.37750  0.77390  0.13110  Biso   1.000  C
  C2288    1.0000 0.38090  0.74030  0.15970  Biso   1.000  C
  H2182    1.0000 0.37330  0.71250  0.15200  Biso   1.000  H
  H2183    1.0000 0.39270  0.72910  0.16990  Biso   1.000  H
  H2184    1.0000 0.37900  0.75820  0.17510  Biso   1.000  H
  O157     1.0000 0.47878  0.87070  0.02510  Biso   1.000  O
  O158     1.0000 0.47303  0.81060  0.09660  Biso   1.000  O
  O159     1.0000 0.44670  0.90640  0.05860  Biso   1.000  O
  N313     1.0000 0.48830  0.80760  0.91110  Biso   1.000  N
  N314     1.0000 0.47914  0.84360  0.95360  Biso   1.000  N
  N315     1.0000 0.46098  0.65630  0.17630  Biso   1.000  N
  N316     1.0000 0.46659  0.71100  0.13500  Biso   1.000  N
  N317     1.0000 0.37174  0.96240  0.00940  Biso   1.000  N
  N318     1.0000 0.40637  0.95270  0.03810  Biso   1.000  N
  C2289    1.0000 0.49340  0.79340  0.88890  Biso   1.000  C
  C2290    1.0000 0.49810  0.74730  0.88720  Biso   1.000  C
  H2185    1.0000 0.49810  0.72400  0.90160  Biso   1.000  H
  C2291    1.0000 0.50290  0.73350  0.86510  Biso   1.000  C
  H2186    1.0000 0.50570  0.70100  0.86390  Biso   1.000  H
  C2292    1.0000 0.50350  0.76730  0.84500  Biso   1.000  C
  C2293    1.0000 0.49920  0.81380  0.84780  Biso   1.000  C
  H2187    1.0000 0.49850  0.83680  0.83270  Biso   1.000  H
  C2294    1.0000 0.49560  0.82990  0.87240  Biso   1.000  C
  H2188    1.0000 0.49480  0.86280  0.87660  Biso   1.000  H
  C2295    1.0000 0.50860  0.75230  0.82050  Biso   1.000  C
  H2189    1.0000 0.50130  0.76850  0.80040  Biso   1.000  H
  H2190    1.0000 0.52040  0.76140  0.82790  Biso   1.000  H
  H2191    1.0000 0.50740  0.71740  0.81740  Biso   1.000  H
  C2296    1.0000 0.49450  0.78930  0.93910  Biso   1.000  C
  H2192    1.0000 0.50200  0.76300  0.94440  Biso   1.000  H
  C2297    1.0000 0.49040  0.80710  0.96280  Biso   1.000  C
  C2298    1.0000 0.49840  0.79040  0.99310  Biso   1.000  C
  H2193    1.0000 0.50680  0.76600  0.99900  Biso   1.000  H
  C2299    1.0000 0.49450  0.80850  0.01490  Biso   1.000  C
  H2194    1.0000 0.49910  0.79510  0.03560  Biso   1.000  H
  C2300    1.0000 0.48364  0.84640  0.00610  Biso   1.000  C
  C2301    1.0000 0.47540  0.86050  0.97530  Biso   1.000  C
  H2195    1.0000 0.46660  0.88340  0.96890  Biso   1.000  H
  C2302    1.0000 0.48410  0.85250  0.05670  Biso   1.000  C
  H2196    1.0000 0.48150  0.81770  0.05600  Biso   1.000  H
  H2197    1.0000 0.49650  0.85710  0.07040  Biso   1.000  H
  C2303    1.0000 0.45640  0.62730  0.19590  Biso   1.000  C
  C2304    1.0000 0.45820  0.57900  0.19590  Biso   1.000  C
  H2198    1.0000 0.46230  0.56450  0.18320  Biso   1.000  H
  C2305    1.0000 0.45390  0.55090  0.21450  Biso   1.000  C
  H2199    1.0000 0.45540  0.51700  0.21480  Biso   1.000  H
  C2306    1.0000 0.44750  0.57100  0.23290  Biso   1.000  C
  C2307    1.0000 0.44660  0.61860  0.23430  Biso   1.000  C
  H2200    1.0000 0.44250  0.63250  0.24730  Biso   1.000  H
  C2308    1.0000 0.45170  0.64890  0.21640  Biso   1.000  C
  H2201    1.0000 0.45180  0.68290  0.21860  Biso   1.000  H
  C2309    1.0000 0.44240  0.53830  0.25270  Biso   1.000  C
  H2202    1.0000 0.45250  0.52410  0.27030  Biso   1.000  H
  H2203    1.0000 0.43640  0.55750  0.26110  Biso   1.000  H
  H2204    1.0000 0.43490  0.51260  0.23920  Biso   1.000  H
  C2310    1.0000 0.46790  0.69790  0.18500  Biso   1.000  C
  H2205    1.0000 0.47150  0.70800  0.20610  Biso   1.000  H
  C2311    1.0000 0.47050  0.73030  0.16400  Biso   1.000  C
  C2312    1.0000 0.47770  0.77450  0.17340  Biso   1.000  C
  H2206    1.0000 0.48170  0.78490  0.19460  Biso   1.000  H
  C2313    1.0000 0.47940  0.80450  0.15160  Biso   1.000  C
  H2207    1.0000 0.48440  0.83540  0.15770  Biso   1.000  H
  C2314    1.0000 0.47350  0.78780  0.12130  Biso   1.000  C
  C2315    1.0000 0.46730  0.74050  0.11380  Biso   1.000  C
  H2208    1.0000 0.46350  0.72900  0.09290  Biso   1.000  H
  C2316    1.0000 0.47800  0.86030  0.10110  Biso   1.000  C
  H2209    1.0000 0.47160  0.87820  0.10950  Biso   1.000  H
  H2210    1.0000 0.49020  0.86310  0.11650  Biso   1.000  H
  C2317    1.0000 0.35400  0.97290  0.99430  Biso   1.000  C
  C2318    1.0000 0.34568  0.99470  0.96540  Biso   1.000  C
  H2211    1.0000 0.35130  0.99980  0.95340  Biso   1.000  H
  C2319    1.0000 0.32936  0.00920  0.95380  Biso   1.000  C
  H2212    1.0000 0.32390  0.02540  0.93400  Biso   1.000  H
  C2320    1.0000 0.32051  0.00110  0.97020  Biso   1.000  C
  C2321    1.0000 0.32868  0.98000  0.99880  Biso   1.000  C
  H2213    1.0000 0.32300  0.97410  0.01060  Biso   1.000  H
  C2322    1.0000 0.34564  0.96670  0.01130  Biso   1.000  C
  H2214    1.0000 0.35150  0.95310  0.03190  Biso   1.000  H
  C2323    1.0000 0.30212  0.01670  0.95590  Biso   1.000  C
  H2215    1.0000 0.29930  0.03790  0.93780  Biso   1.000  H
  H2216    1.0000 0.29480  0.98830  0.94880  Biso   1.000  H
  H2217    1.0000 0.30050  0.03400  0.97180  Biso   1.000  H
  C2324    1.0000 0.37804  0.93980  0.99580  Biso   1.000  C
  H2218    1.0000 0.37070  0.92740  0.97530  Biso   1.000  H
  C2325    1.0000 0.39628  0.93120  0.00970  Biso   1.000  C
  C2326    1.0000 0.40266  0.89980  0.99640  Biso   1.000  C
  H2219    1.0000 0.39540  0.88490  0.97670  Biso   1.000  H
  C2327    1.0000 0.41990  0.88980  0.01180  Biso   1.000  C
  H2220    1.0000 0.42450  0.86720  0.00330  Biso   1.000  H
  C2328    1.0000 0.42990  0.91300  0.03930  Biso   1.000  C
  C2329    1.0000 0.42237  0.94360  0.05170  Biso   1.000  C
  H2221    1.0000 0.42950  0.95860  0.07140  Biso   1.000  H
  C2330    1.0000 0.45558  0.87800  0.04590  Biso   1.000  C
  H2222    1.0000 0.45180  0.84410  0.04320  Biso   1.000  H
  H2223    1.0000 0.45320  0.89080  0.02510  Biso   1.000  H
  C2331    1.0000 0.47437  0.88100  0.06920  Biso   1.000  C
  C2332    1.0000 0.48070  0.93340  0.07610  Biso   1.000  C
  H2224    1.0000 0.47860  0.94910  0.05630  Biso   1.000  H
  H2225    1.0000 0.47460  0.95080  0.08510  Biso   1.000  H
  H2226    1.0000 0.49280  0.93380  0.09110  Biso   1.000  H
  O160     1.0000 0.40519  0.80190  0.69130  Biso   1.000  O
  O161     1.0000 0.43080  0.88690  0.76800  Biso   1.000  O
  O162     1.0000 0.39072  0.92180  0.72180  Biso   1.000  O
  N319     1.0000 0.39872  0.57780  0.68240  Biso   1.000  N
  N320     1.0000 0.39563  0.67800  0.68080  Biso   1.000  N
  N321     1.0000 0.48234  0.93130  0.90840  Biso   1.000  N
  N322     1.0000 0.45777  0.89750  0.85050  Biso   1.000  N
  N323     1.0000 0.33743  0.99120  0.75900  Biso   1.000  N
  N324     1.0000 0.36071  0.97690  0.73900  Biso   1.000  N
  C2333    1.0000 0.39980  0.52760  0.67850  Biso   1.000  C
  C2334    1.0000 0.41156  0.50750  0.67160  Biso   1.000  C
  H2227    1.0000 0.41950  0.52720  0.66930  Biso   1.000  H
  C2335    1.0000 0.41160  0.45770  0.66820  Biso   1.000  C
  H2228    1.0000 0.41940  0.44400  0.66260  Biso   1.000  H
  C2336    1.0000 0.40100  0.42790  0.67240  Biso   1.000  C
  C2337    1.0000 0.38930  0.44750  0.67990  Biso   1.000  C
  H2229    1.0000 0.38190  0.42750  0.68340  Biso   1.000  H
  C2338    1.0000 0.38870  0.49820  0.68210  Biso   1.000  C
  H2230    1.0000 0.38040  0.51220  0.68620  Biso   1.000  H
  C2339    1.0000 0.40090  0.37390  0.66780  Biso   1.000  C
  H2231    1.0000 0.39460  0.36640  0.64510  Biso   1.000  H
  H2232    1.0000 0.41260  0.36240  0.67660  Biso   1.000  H
  H2233    1.0000 0.39550  0.35800  0.67870  Biso   1.000  H
  C2340    1.0000 0.41153  0.60510  0.69200  Biso   1.000  C
  H2234    1.0000 0.42220  0.59040  0.69920  Biso   1.000  H
  C2341    1.0000 0.41097  0.65760  0.69290  Biso   1.000  C
  C2342    1.0000 0.42524  0.68460  0.70520  Biso   1.000  C
  H2235    1.0000 0.43590  0.66920  0.71330  Biso   1.000  H
  C2343    1.0000 0.42451  0.73400  0.70620  Biso   1.000  C
  H2236    1.0000 0.43440  0.75330  0.71540  Biso   1.000  H
  C2344    1.0000 0.40855  0.75360  0.69290  Biso   1.000  C
  C2345    1.0000 0.39475  0.72520  0.68100  Biso   1.000  C
  H2237    1.0000 0.38390  0.73990  0.67240  Biso   1.000  H
  C2346    1.0000 0.41896  0.83180  0.71260  Biso   1.000  C
  H2238    1.0000 0.42460  0.81770  0.73410  Biso   1.000  H
  H2239    1.0000 0.42740  0.83490  0.70530  Biso   1.000  H
  C2347    1.0000 0.49560  0.94890  0.93870  Biso   1.000  C
  C2348    1.0000 0.50830  0.91930  0.95870  Biso   1.000  C
  H2240    1.0000 0.50820  0.88670  0.95290  Biso   1.000  H
  C2349    1.0000 0.52130  0.93530  0.98740  Biso   1.000  C
  H2241    1.0000 0.53030  0.91410  0.00030  Biso   1.000  H
  C2350    1.0000 0.52140  0.98170  0.99720  Biso   1.000  C
  C2351    1.0000 0.50830  0.01040  0.97860  Biso   1.000  C
  H2242    1.0000 0.50760  0.04120  0.98640  Biso   1.000  H
  C2352    1.0000 0.49530  0.99670  0.94760  Biso   1.000  C
  H2243    1.0000 0.48700  0.01890  0.93390  Biso   1.000  H
  C2353    1.0000 0.53510  0.00020  0.03000  Biso   1.000  C
  H2244    1.0000 0.54480  0.01230  0.02830  Biso   1.000  H
  H2245    1.0000 0.53040  0.02620  0.03700  Biso   1.000  H
  H2246    1.0000 0.53880  0.97380  0.04530  Biso   1.000  H
  C2354    1.0000 0.47850  0.95650  0.88360  Biso   1.000  C
  H2247    1.0000 0.48400  0.98630  0.88580  Biso   1.000  H
  C2355    1.0000 0.46570  0.94070  0.85220  Biso   1.000  C
  C2356    1.0000 0.46250  0.96700  0.82600  Biso   1.000  C
  H2248    1.0000 0.46860  0.99590  0.82850  Biso   1.000  H
  C2357    1.0000 0.45050  0.95280  0.79570  Biso   1.000  C
  H2249    1.0000 0.44790  0.97130  0.77730  Biso   1.000  H
  C2358    1.0000 0.44250  0.90870  0.79440  Biso   1.000  C
  C2359    1.0000 0.44650  0.88250  0.82190  Biso   1.000  C
  H2250    1.0000 0.44080  0.85280  0.82000  Biso   1.000  H
  C2360    1.0000 0.42576  0.91160  0.73830  Biso   1.000  C
  H2251    1.0000 0.42180  0.94460  0.73890  Biso   1.000  H
  H2252    1.0000 0.43530  0.91360  0.73390  Biso   1.000  H
  C2361    1.0000 0.32302  0.99760  0.76340  Biso   1.000  C
  C2362    1.0000 0.30970  0.96690  0.75120  Biso   1.000  C
  H2253    1.0000 0.31030  0.93830  0.74110  Biso   1.000  H
  C2363    1.0000 0.29530  0.97650  0.75330  Biso   1.000  C
  H2254    1.0000 0.28590  0.95510  0.74390  Biso   1.000  H
  C2364    1.0000 0.29440  0.01720  0.76900  Biso   1.000  C
  C2365    1.0000 0.30720  0.04800  0.77920  Biso   1.000  C
  H2255    1.0000 0.30640  0.07770  0.78820  Biso   1.000  H
  C2366    1.0000 0.32170  0.03830  0.77720  Biso   1.000  C
  H2256    1.0000 0.33080  0.06060  0.78570  Biso   1.000  H
  C2367    1.0000 0.27870  0.02860  0.77260  Biso   1.000  C
  H2257    1.0000 0.26850  0.01730  0.75380  Biso   1.000  H
  H2258    1.0000 0.27980  0.01240  0.79150  Biso   1.000  H
  H2259    1.0000 0.27800  0.06340  0.77480  Biso   1.000  H
  C2368    1.0000 0.34330  0.94950  0.76050  Biso   1.000  C
  H2260    1.0000 0.34010  0.92440  0.76990  Biso   1.000  H
  C2369    1.0000 0.35490  0.93890  0.74830  Biso   1.000  C
  C2370    1.0000 0.36090  0.89330  0.74940  Biso   1.000  C
  H2261    1.0000 0.35690  0.86750  0.75690  Biso   1.000  H
  C2371    1.0000 0.37270  0.88480  0.73970  Biso   1.000  C
  H2262    1.0000 0.37650  0.85310  0.73920  Biso   1.000  H
  C2372    1.0000 0.37868  0.92330  0.73080  Biso   1.000  C
  C2373    1.0000 0.37236  0.96880  0.73150  Biso   1.000  C
  H2263    1.0000 0.37700  0.99560  0.72620  Biso   1.000  H
  C2374    1.0000 0.39725  0.87460  0.72050  Biso   1.000  C
  H2264    1.0000 0.40150  0.85800  0.74110  Biso   1.000  H
  H2265    1.0000 0.38820  0.85470  0.70390  Biso   1.000  H
  C2375    1.0000 0.41135  0.88170  0.71280  Biso   1.000  C
  C2376    1.0000 0.40600  0.90760  0.68050  Biso   1.000  C
  H2266    1.0000 0.39820  0.88700  0.66310  Biso   1.000  H
  H2267    1.0000 0.40040  0.93810  0.67990  Biso   1.000  H
  H2268    1.0000 0.41610  0.91390  0.67840  Biso   1.000  H
  O163     1.0000 0.33251  0.50040  0.69480  Biso   1.000  O
  O164     1.0000 0.33323  0.43730  0.77240  Biso   1.000  O
  O165     1.0000 0.30199  0.54200  0.71460  Biso   1.000  O
  N325     1.0000 0.35663  0.62520  0.61760  Biso   1.000  N
  N326     1.0000 0.35210  0.56920  0.66000  Biso   1.000  N
  N327     1.0000 0.37455  0.32040  0.89710  Biso   1.000  N
  N328     1.0000 0.35378  0.38100  0.84730  Biso   1.000  N
  N329     1.0000 0.27241  0.74060  0.72560  Biso   1.000  N
  N330     1.0000 0.27950  0.64840  0.71240  Biso   1.000  N
  C2377    1.0000 0.35971  0.65400  0.59660  Biso   1.000  C
  C2378    1.0000 0.34699  0.67840  0.57140  Biso   1.000  C
  H2269    1.0000 0.33570  0.67600  0.56760  Biso   1.000  H
  C2379    1.0000 0.35058  0.70650  0.55160  Biso   1.000  C
  H2270    1.0000 0.34170  0.72260  0.53410  Biso   1.000  H
  C2380    1.0000 0.36675  0.71100  0.55700  Biso   1.000  C
  C2381    1.0000 0.37958  0.68760  0.58250  Biso   1.000  C
  H2271    1.0000 0.39090  0.69110  0.58680  Biso   1.000  H
  C2382    1.0000 0.37595  0.65830  0.60270  Biso   1.000  C
  H2272    1.0000 0.38480  0.64210  0.62020  Biso   1.000  H
  C2383    1.0000 0.37080  0.74240  0.53600  Biso   1.000  C
  H2273    1.0000 0.36580  0.77430  0.53400  Biso   1.000  H
  H2274    1.0000 0.38310  0.74550  0.54530  Biso   1.000  H
  H2275    1.0000 0.36620  0.72770  0.51490  Biso   1.000  H
  C2384    1.0000 0.34322  0.60010  0.60790  Biso   1.000  C
  H2276    1.0000 0.33510  0.60070  0.58600  Biso   1.000  H
  C2385    1.0000 0.33990  0.57080  0.62910  Biso   1.000  C
  C2386    1.0000 0.32472  0.54760  0.61820  Biso   1.000  C
  H2277    1.0000 0.31640  0.54980  0.59650  Biso   1.000  H
  C2387    1.0000 0.32160  0.52090  0.63890  Biso   1.000  C
  H2278    1.0000 0.31160  0.50220  0.63170  Biso   1.000  H
  C2388    1.0000 0.33349  0.52260  0.67030  Biso   1.000  C
  C2389    1.0000 0.34860  0.54440  0.67960  Biso   1.000  C
  H2279    1.0000 0.35710  0.54180  0.70110  Biso   1.000  H
  C2390    1.0000 0.31723  0.47630  0.68840  Biso   1.000  C
  H2280    1.0000 0.30730  0.49570  0.67400  Biso   1.000  H
  H2281    1.0000 0.31650  0.44470  0.67840  Biso   1.000  H
  C2391    1.0000 0.38504  0.28830  0.92310  Biso   1.000  C
  C2392    1.0000 0.40080  0.27390  0.92940  Biso   1.000  C
  H2282    1.0000 0.40580  0.28750  0.91780  Biso   1.000  H
  C2393    1.0000 0.40970  0.24000  0.95240  Biso   1.000  C
  H2283    1.0000 0.41980  0.22620  0.95410  Biso   1.000  H
  C2394    1.0000 0.40380  0.22610  0.97310  Biso   1.000  C
  C2395    1.0000 0.38850  0.24080  0.96730  Biso   1.000  C
  H2284    1.0000 0.38440  0.23080  0.98110  Biso   1.000  H
  C2396    1.0000 0.37810  0.27110  0.94080  Biso   1.000  C
  H2285    1.0000 0.36680  0.27890  0.93570  Biso   1.000  H
  C2397    1.0000 0.41480  0.19300  0.00150  Biso   1.000  C
  H2286    1.0000 0.41710  0.16300  0.99380  Biso   1.000  H
  H2287    1.0000 0.42540  0.20930  0.01570  Biso   1.000  H
  H2288    1.0000 0.40870  0.18590  0.01310  Biso   1.000  H
  C2398    1.0000 0.37610  0.32200  0.87230  Biso   1.000  C
  H2289    1.0000 0.38460  0.30270  0.87160  Biso   1.000  H
  C2399    1.0000 0.36540  0.35220  0.84460  Biso   1.000  C
  C2400    1.0000 0.36780  0.35500  0.81890  Biso   1.000  C
  H2290    1.0000 0.37710  0.33880  0.81920  Biso   1.000  H
  C2401    1.0000 0.35690  0.38110  0.79220  Biso   1.000  C
  H2291    1.0000 0.35750  0.37960  0.77320  Biso   1.000  H
  C2402    1.0000 0.34499  0.40930  0.79470  Biso   1.000  C
  C2403    1.0000 0.34366  0.40690  0.82230  Biso   1.000  C
  H2292    1.0000 0.33500  0.42500  0.82320  Biso   1.000  H
  C2404    1.0000 0.33346  0.44170  0.74250  Biso   1.000  C
  H2293    1.0000 0.34380  0.45900  0.74580  Biso   1.000  H
  H2294    1.0000 0.33330  0.40950  0.73370  Biso   1.000  H
  C2405    1.0000 0.26830  0.78450  0.73600  Biso   1.000  C
  C2406    1.0000 0.26930  0.78710  0.76500  Biso   1.000  C
  H2295    1.0000 0.27320  0.76030  0.77890  Biso   1.000  H
  C2407    1.0000 0.26470  0.82860  0.77400  Biso   1.000  C
  H2296    1.0000 0.26570  0.83050  0.79450  Biso   1.000  H
  C2408    1.0000 0.25860  0.86790  0.75380  Biso   1.000  C
  C2409    1.0000 0.25830  0.86560  0.72590  Biso   1.000  C
  H2297    1.0000 0.25490  0.89290  0.71240  Biso   1.000  H
  C2410    1.0000 0.26310  0.82350  0.71650  Biso   1.000  C
  H2298    1.0000 0.26260  0.82210  0.69650  Biso   1.000  H
  C2411    1.0000 0.25370  0.91500  0.76480  Biso   1.000  C
  H2299    1.0000 0.24320  0.91010  0.76540  Biso   1.000  H
  H2300    1.0000 0.26280  0.92360  0.78610  Biso   1.000  H
  H2301    1.0000 0.25220  0.94100  0.75000  Biso   1.000  H
  C2412    1.0000 0.28633  0.72150  0.74390  Biso   1.000  C
  H2302    1.0000 0.29410  0.73840  0.76240  Biso   1.000  H
  C2413    1.0000 0.29106  0.67350  0.73770  Biso   1.000  C
  C2414    1.0000 0.30680  0.65540  0.75560  Biso   1.000  C
  H2303    1.0000 0.31480  0.67400  0.77290  Biso   1.000  H
  C2415    1.0000 0.31160  0.61050  0.74990  Biso   1.000  C
  H2304    1.0000 0.32250  0.59730  0.76330  Biso   1.000  H
  C2416    1.0000 0.29970  0.58640  0.72370  Biso   1.000  C
  C2417    1.0000 0.28381  0.60710  0.70610  Biso   1.000  C
  H2305    1.0000 0.27560  0.58990  0.68820  Biso   1.000  H
  C2418    1.0000 0.31836  0.51930  0.73470  Biso   1.000  C
  H2306    1.0000 0.32760  0.53900  0.73530  Biso   1.000  H
  H2307    1.0000 0.32030  0.51570  0.75660  Biso   1.000  H
  C2419    1.0000 0.31778  0.46970  0.72020  Biso   1.000  C
  C2420    1.0000 0.30184  0.44230  0.71480  Biso   1.000  C
  H2308    1.0000 0.30240  0.40920  0.70850  Biso   1.000  H
  H2309    1.0000 0.30120  0.44220  0.73450  Biso   1.000  H
  H2310    1.0000 0.29180  0.45820  0.69810  Biso   1.000  H
  O166     1.0000 0.36407  0.44200  0.01510  Biso   1.000  O
  O167     1.0000 0.40067  0.51070  0.09230  Biso   1.000  O
  O168     1.0000 0.35013  0.54150  0.03830  Biso   1.000  O
  N331     1.0000 0.33557  0.31970  0.89160  Biso   1.000  N
  N332     1.0000 0.35290  0.37800  0.94390  Biso   1.000  N
  N333     1.0000 0.47389  0.57690  0.13330  Biso   1.000  N
  N334     1.0000 0.44086  0.56310  0.11800  Biso   1.000  N
  N335     1.0000 0.30387  0.71860  0.97370  Biso   1.000  N
  N336     1.0000 0.32036  0.63670  0.00670  Biso   1.000  N
  C2421    1.0000 0.32868  0.28570  0.86660  Biso   1.000  C
  C2422    1.0000 0.32950  0.23780  0.87290  Biso   1.000  C
  H2311    1.0000 0.33460  0.22730  0.89430  Biso   1.000  H
  C2423    1.0000 0.32300  0.20380  0.84890  Biso   1.000  C
  H2312    1.0000 0.32340  0.17060  0.85390  Biso   1.000  H
  C2424    1.0000 0.31600  0.21820  0.81760  Biso   1.000  C
  C2425    1.0000 0.31500  0.26670  0.81150  Biso   1.000  C
  H2313    1.0000 0.30950  0.27750  0.79020  Biso   1.000  H
  C2426    1.0000 0.32200  0.30120  0.83670  Biso   1.000  C
  H2314    1.0000 0.32190  0.33450  0.83220  Biso   1.000  H
  C2427    1.0000 0.30900  0.18010  0.79240  Biso   1.000  C
  H2315    1.0000 0.30410  0.19530  0.77150  Biso   1.000  H
  H2316    1.0000 0.31800  0.15820  0.79500  Biso   1.000  H
  H2317    1.0000 0.30020  0.16200  0.79420  Biso   1.000  H
  C2428    1.0000 0.33340  0.31490  0.91580  Biso   1.000  C
  H2318    1.0000 0.32600  0.29050  0.91540  Biso   1.000  H
  C2429    1.0000 0.34174  0.34520  0.94370  Biso   1.000  C
  C2430    1.0000 0.33729  0.34340  0.96690  Biso   1.000  C
  H2319    1.0000 0.32940  0.32010  0.96590  Biso   1.000  H
  C2431    1.0000 0.34436  0.37560  0.99210  Biso   1.000  C
  H2320    1.0000 0.34120  0.37590  0.00810  Biso   1.000  H
  C2432    1.0000 0.35617  0.40690  0.99250  Biso   1.000  C
  C2433    1.0000 0.35990  0.40760  0.96840  Biso   1.000  C
  H2321    1.0000 0.36790  0.43050  0.96920  Biso   1.000  H
  C2434    1.0000 0.36095  0.44250  0.04200  Biso   1.000  C
  H2322    1.0000 0.34890  0.44920  0.03480  Biso   1.000  H
  H2323    1.0000 0.36390  0.41110  0.05300  Biso   1.000  H
  C2435    1.0000 0.49150  0.58550  0.14300  Biso   1.000  C
  C2436    1.0000 0.50020  0.61860  0.16580  Biso   1.000  C
  H2324    1.0000 0.49480  0.63430  0.17580  Biso   1.000  H
  C2437    1.0000 0.51670  0.63010  0.17480  Biso   1.000  C
  H2325    1.0000 0.52200  0.65620  0.18890  Biso   1.000  H
  C2438    1.0000 0.52550  0.60390  0.16340  Biso   1.000  C
  C2439    1.0000 0.51720  0.56910  0.14210  Biso   1.000  C
  H2326    1.0000 0.52340  0.55030  0.13480  Biso   1.000  H
  C2440    1.0000 0.49960  0.55880  0.12980  Biso   1.000  C
  H2327    1.0000 0.49390  0.53540  0.11370  Biso   1.000  H
  C2441    1.0000 0.54380  0.61740  0.17200  Biso   1.000  C
  H2328    1.0000 0.54520  0.61440  0.15320  Biso   1.000  H
  H2329    1.0000 0.54600  0.65070  0.17970  Biso   1.000  H
  H2330    1.0000 0.55170  0.59580  0.18860  Biso   1.000  H
  C2442    1.0000 0.46753  0.53480  0.12550  Biso   1.000  C
  H2331    1.0000 0.47440  0.50940  0.12500  Biso   1.000  H
  C2443    1.0000 0.45002  0.52400  0.11730  Biso   1.000  C
  C2444    1.0000 0.44303  0.47930  0.10710  Biso   1.000  C
  H2332    1.0000 0.44980  0.45360  0.10670  Biso   1.000  H
  C2445    1.0000 0.42607  0.47170  0.09740  Biso   1.000  C
  H2333    1.0000 0.42080  0.44180  0.08880  Biso   1.000  H
  C2446    1.0000 0.41704  0.51010  0.10080  Biso   1.000  C
  C2447    1.0000 0.42480  0.55560  0.11030  Biso   1.000  C
  H2334    1.0000 0.41830  0.58180  0.11130  Biso   1.000  H
  C2448    1.0000 0.39038  0.47060  0.07390  Biso   1.000  C
  H2335    1.0000 0.39170  0.46550  0.05500  Biso   1.000  H
  H2336    1.0000 0.39390  0.44080  0.08680  Biso   1.000  H
  C2449    1.0000 0.29630  0.76420  0.95900  Biso   1.000  C
  C2450    1.0000 0.30400  0.80710  0.97150  Biso   1.000  C
  H2337    1.0000 0.31480  0.80730  0.98980  Biso   1.000  H
  C2451    1.0000 0.29640  0.84980  0.95810  Biso   1.000  C
  H2338    1.0000 0.30200  0.87920  0.96710  Biso   1.000  H
  C2452    1.0000 0.28050  0.85060  0.93150  Biso   1.000  C
  C2453    1.0000 0.27300  0.80880  0.91940  Biso   1.000  C
  H2339    1.0000 0.26220  0.80870  0.90080  Biso   1.000  H
  C2454    1.0000 0.28050  0.76480  0.93350  Biso   1.000  C
  H2340    1.0000 0.27450  0.73550  0.92530  Biso   1.000  H
  C2455    1.0000 0.27190  0.89950  0.91690  Biso   1.000  C
  H2341    1.0000 0.26740  0.89860  0.89390  Biso   1.000  H
  H2342    1.0000 0.26270  0.90530  0.92150  Biso   1.000  H
  H2343    1.0000 0.28030  0.92550  0.92600  Biso   1.000  H
  C2456    1.0000 0.31934  0.71300  0.98180  Biso   1.000  C
  H2344    1.0000 0.32520  0.73800  0.97790  Biso   1.000  H
  C2457    1.0000 0.32833  0.66880  0.99730  Biso   1.000  C
  C2458    1.0000 0.34385  0.66120  0.00230  Biso   1.000  C
  H2345    1.0000 0.34900  0.68390  0.99500  Biso   1.000  H
  C2459    1.0000 0.35280  0.61970  0.01840  Biso   1.000  C
  H2346    1.0000 0.36430  0.61550  0.02400  Biso   1.000  H
  C2460    1.0000 0.34433  0.58570  0.02560  Biso   1.000  C
  C2461    1.0000 0.32786  0.59640  0.01950  Biso   1.000  C
  H2347    1.0000 0.32200  0.57330  0.02500  Biso   1.000  H
  C2462    1.0000 0.36737  0.53100  0.04710  Biso   1.000  C
  H2348    1.0000 0.36880  0.53000  0.02800  Biso   1.000  H
  H2349    1.0000 0.37490  0.55630  0.06140  Biso   1.000  H
  C2463    1.0000 0.37207  0.48220  0.06390  Biso   1.000  C
  C2464    1.0000 0.36950  0.48350  0.09350  Biso   1.000  C
  H2350    1.0000 0.35770  0.49190  0.08690  Biso   1.000  H
  H2351    1.0000 0.37200  0.45190  0.10360  Biso   1.000  H
  H2352    1.0000 0.37700  0.50760  0.10850  Biso   1.000  H
  Cd57     1.0000 0.79328  0.16431  0.99773  Biso   1.000  Cd
  Cd58     1.0000 0.89255  0.50795  0.05405  Biso   1.000  Cd
  Cd59     1.0000 0.84598  0.54839  0.73361  Biso   1.000  Cd
  Cd60     1.0000 0.75255  0.18805  0.68579  Biso   1.000  Cd
  Cd61     1.0000 0.85577  0.87868  0.89758  Biso   1.000  Cd
  Cd62     1.0000 0.95398  0.13650  0.12451  Biso   1.000  Cd
  Cd63     1.0000 0.96622  0.36298  0.89949  Biso   1.000  Cd
  Cd64     1.0000 0.87444  0.12111  0.67284  Biso   1.000  Cd
  O169     1.0000 0.77486  0.06300  0.88560  Biso   1.000  O
  O170     1.0000 0.76108  0.08460  0.79140  Biso   1.000  O
  O171     1.0000 0.79826  0.99750  0.85600  Biso   1.000  O
  N337     1.0000 0.78414  0.10430  0.01960  Biso   1.000  N
  N338     1.0000 0.78068  0.10410  0.95970  Biso   1.000  N
  N339     1.0000 0.73099  0.23950  0.68420  Biso   1.000  N
  N340     1.0000 0.74657  0.16370  0.72520  Biso   1.000  N
  N341     1.0000 0.87452  0.94380  0.91250  Biso   1.000  N
  N342     1.0000 0.83960  0.95040  0.88480  Biso   1.000  N
  C2465    1.0000 0.78460  0.10660  0.04920  Biso   1.000  C
  C2466    1.0000 0.77050  0.09740  0.05210  Biso   1.000  C
  H2353    1.0000 0.76000  0.09030  0.03390  Biso   1.000  H
  C2467    1.0000 0.77160  0.09830  0.08170  Biso   1.000  C
  H2354    1.0000 0.76220  0.08800  0.08380  Biso   1.000  H
  C2468    1.0000 0.78590  0.11360  0.10810  Biso   1.000  C
  C2469    1.0000 0.79980  0.12270  0.10500  Biso   1.000  C
  H2355    1.0000 0.81010  0.13010  0.12340  Biso   1.000  H
  C2470    1.0000 0.79920  0.12140  0.07510  Biso   1.000  C
  H2356    1.0000 0.80870  0.13050  0.07310  Biso   1.000  H
  C2471    1.0000 0.78590  0.12410  0.13900  Biso   1.000  C
  H2357    1.0000 0.78370  0.15830  0.14000  Biso   1.000  H
  H2358    1.0000 0.77720  0.10480  0.14010  Biso   1.000  H
  H2359    1.0000 0.79700  0.11580  0.15680  Biso   1.000  H
  C2472    1.0000 0.77690  0.06870  0.00140  Biso   1.000  C
  H2360    1.0000 0.77280  0.04300  0.00860  Biso   1.000  H
  C2473    1.0000 0.77490  0.06660  0.96950  Biso   1.000  C
  C2474    1.0000 0.76810  0.02690  0.95100  Biso   1.000  C
  H2361    1.0000 0.76400  0.00100  0.95830  Biso   1.000  H
  C2475    1.0000 0.76730  0.02450  0.92170  Biso   1.000  C
  H2362    1.0000 0.76260  0.99720  0.90840  Biso   1.000  H
  C2476    1.0000 0.77330  0.06230  0.91240  Biso   1.000  C
  C2477    1.0000 0.77990  0.10100  0.93140  Biso   1.000  C
  H2363    1.0000 0.78400  0.12700  0.92440  Biso   1.000  H
  C2478    1.0000 0.76890  0.02120  0.86540  Biso   1.000  C
  H2364    1.0000 0.77590  0.99280  0.87650  Biso   1.000  H
  H2365    1.0000 0.75700  0.01440  0.85920  Biso   1.000  H
  C2479    1.0000 0.72263  0.27750  0.66190  Biso   1.000  C
  C2480    1.0000 0.71834  0.27050  0.63100  Biso   1.000  C
  H2366    1.0000 0.72000  0.23960  0.62460  Biso   1.000  H
  C2481    1.0000 0.71170  0.30600  0.60890  Biso   1.000  C
  H2367    1.0000 0.70890  0.29980  0.58760  Biso   1.000  H
  C2482    1.0000 0.70910  0.35150  0.61780  Biso   1.000  C
  C2483    1.0000 0.71260  0.35870  0.64790  Biso   1.000  C
  H2368    1.0000 0.71010  0.38910  0.65370  Biso   1.000  H
  C2484    1.0000 0.71990  0.32180  0.67130  Biso   1.000  C
  H2369    1.0000 0.72280  0.32770  0.69280  Biso   1.000  H
  C2485    1.0000 0.70170  0.39320  0.59410  Biso   1.000  C
  H2370    1.0000 0.69980  0.38270  0.57330  Biso   1.000  H
  H2371    1.0000 0.70960  0.42030  0.60150  Biso   1.000  H
  H2372    1.0000 0.69090  0.40340  0.59250  Biso   1.000  H
  C2486    1.0000 0.72952  0.23570  0.70910  Biso   1.000  C
  H2373    1.0000 0.72280  0.25850  0.71260  Biso   1.000  H
  C2487    1.0000 0.73786  0.19710  0.73240  Biso   1.000  C
  C2488    1.0000 0.73588  0.19310  0.75820  Biso   1.000  C
  H2374    1.0000 0.72880  0.21540  0.76110  Biso   1.000  H
  C2489    1.0000 0.74390  0.15720  0.78080  Biso   1.000  C
  H2375    1.0000 0.74320  0.15590  0.79980  Biso   1.000  H
  C2490    1.0000 0.75290  0.12340  0.77380  Biso   1.000  C
  C2491    1.0000 0.75378  0.12780  0.74570  Biso   1.000  C
  H2376    1.0000 0.75980  0.10400  0.74100  Biso   1.000  H
  C2492    1.0000 0.76020  0.07850  0.82020  Biso   1.000  C
  H2377    1.0000 0.76500  0.10690  0.83410  Biso   1.000  H
  H2378    1.0000 0.74830  0.07430  0.81540  Biso   1.000  H
  C2493    1.0000 0.89262  0.94110  0.92570  Biso   1.000  C
  C2494    1.0000 0.90190  0.96920  0.91670  Biso   1.000  C
  H2379    1.0000 0.89640  0.99320  0.90100  Biso   1.000  H
  C2495    1.0000 0.91910  0.96340  0.92990  Biso   1.000  C
  H2380    1.0000 0.92540  0.98410  0.92390  Biso   1.000  H
  C2496    1.0000 0.92720  0.92780  0.95190  Biso   1.000  C
  C2497    1.0000 0.91840  0.89900  0.96060  Biso   1.000  C
  H2381    1.0000 0.92390  0.87450  0.97590  Biso   1.000  H
  C2498    1.0000 0.90100  0.90540  0.94690  Biso   1.000  C
  H2382    1.0000 0.89470  0.88400  0.95260  Biso   1.000  H
  C2499    1.0000 0.94640  0.92160  0.96710  Biso   1.000  C
  H2383    1.0000 0.94900  0.89830  0.95480  Biso   1.000  H
  H2384    1.0000 0.95160  0.95260  0.96730  Biso   1.000  H
  H2385    1.0000 0.95090  0.90990  0.98880  Biso   1.000  H
  C2500    1.0000 0.86737  0.98420  0.90500  Biso   1.000  C
  H2386    1.0000 0.87430  0.01200  0.90940  Biso   1.000  H
  C2501    1.0000 0.84906  0.99060  0.88990  Biso   1.000  C
  C2502    1.0000 0.84172  0.03530  0.88350  Biso   1.000  C
  H2387    1.0000 0.84860  0.06310  0.88730  Biso   1.000  H
  C2503    1.0000 0.82431  0.04040  0.87140  Biso   1.000  C
  H2388    1.0000 0.81910  0.07120  0.86670  Biso   1.000  H
  C2504    1.0000 0.81512  0.99980  0.86650  Biso   1.000  C
  C2505    1.0000 0.82352  0.95550  0.87320  Biso   1.000  C
  H2389    1.0000 0.81690  0.92720  0.86880  Biso   1.000  H
  C2506    1.0000 0.78896  0.04250  0.84590  Biso   1.000  C
  H2390    1.0000 0.79380  0.06620  0.86340  Biso   1.000  H
  H2391    1.0000 0.78980  0.05590  0.82770  Biso   1.000  H
  C2507    1.0000 0.77064  0.03310  0.83640  Biso   1.000  C
  C2508    1.0000 0.76320  0.99060  0.81240  Biso   1.000  C
  H2392    1.0000 0.76300  0.99930  0.79260  Biso   1.000  H
  H2393    1.0000 0.77020  0.96200  0.82150  Biso   1.000  H
  H2394    1.0000 0.75160  0.98400  0.80820  Biso   1.000  H
  O172     1.0000 0.90226  0.57610  0.95500  Biso   1.000  O
  O173     1.0000 0.89232  0.58720  0.86050  Biso   1.000  O
  O174     1.0000 0.92349  0.50650  0.90780  Biso   1.000  O
  N343     1.0000 0.87220  0.56630  0.04670  Biso   1.000  N
  N344     1.0000 0.88952  0.55980  0.01320  Biso   1.000  N
  N345     1.0000 0.86131  0.58990  0.71350  Biso   1.000  N
  N346     1.0000 0.86991  0.58290  0.77660  Biso   1.000  N
  N347     1.0000 0.94775  0.30090  0.89580  Biso   1.000  N
  N348     1.0000 0.94256  0.39750  0.90240  Biso   1.000  N
  C2509    1.0000 0.86331  0.56560  0.06380  Biso   1.000  C
  C2510    1.0000 0.84619  0.57200  0.05010  Biso   1.000  C
  H2395    1.0000 0.83980  0.57840  0.02810  Biso   1.000  H
  C2511    1.0000 0.83800  0.56920  0.06810  Biso   1.000  C
  H2396    1.0000 0.82630  0.57650  0.05870  Biso   1.000  H
  C2512    1.0000 0.84680  0.55600  0.09920  Biso   1.000  C
  C2513    1.0000 0.86400  0.55110  0.11340  Biso   1.000  C
  H2397    1.0000 0.87050  0.54600  0.13560  Biso   1.000  H
  C2514    1.0000 0.87240  0.55370  0.09490  Biso   1.000  C
  H2398    1.0000 0.88420  0.54710  0.10420  Biso   1.000  H
  C2515    1.0000 0.83830  0.54700  0.11890  Biso   1.000  C
  H2399    1.0000 0.82600  0.54950  0.10550  Biso   1.000  H
  H2400    1.0000 0.84110  0.51470  0.12810  Biso   1.000  H
  H2401    1.0000 0.84210  0.57090  0.13590  Biso   1.000  H
  C2516    1.0000 0.86812  0.59380  0.02250  Biso   1.000  C
  H2402    1.0000 0.85950  0.61720  0.01720  Biso   1.000  H
  C2517    1.0000 0.87623  0.59030  0.00300  Biso   1.000  C
  C2518    1.0000 0.87086  0.61830  0.97650  Biso   1.000  C
  H2403    1.0000 0.86170  0.64020  0.97030  Biso   1.000  H
  C2519    1.0000 0.87902  0.61370  0.95910  Biso   1.000  C
  H2404    1.0000 0.87540  0.63190  0.94030  Biso   1.000  H
  C2520    1.0000 0.89233  0.58300  0.96900  Biso   1.000  C
  C2521    1.0000 0.89749  0.55730  0.99620  Biso   1.000  C
  H2405    1.0000 0.90710  0.53690  0.00320  Biso   1.000  H
  C2522    1.0000 0.89812  0.59690  0.92480  Biso   1.000  C
  H2406    1.0000 0.88670  0.58660  0.90840  Biso   1.000  H
  H2407    1.0000 0.89830  0.63240  0.92610  Biso   1.000  H
  C2523    1.0000 0.85639  0.58840  0.68070  Biso   1.000  C
  C2524    1.0000 0.83998  0.59520  0.65840  Biso   1.000  C
  H2408    1.0000 0.83200  0.60310  0.66500  Biso   1.000  H
  C2525    1.0000 0.83460  0.59100  0.62660  Biso   1.000  C
  H2409    1.0000 0.82310  0.59620  0.61150  Biso   1.000  H
  C2526    1.0000 0.84610  0.57920  0.61660  Biso   1.000  C
  C2527    1.0000 0.86250  0.57290  0.63860  Biso   1.000  C
  H2410    1.0000 0.87040  0.56500  0.63170  Biso   1.000  H
  C2528    1.0000 0.86839  0.57750  0.67160  Biso   1.000  C
  H2411    1.0000 0.88000  0.57340  0.68680  Biso   1.000  H
  C2529    1.0000 0.84130  0.57360  0.58110  Biso   1.000  C
  H2412    1.0000 0.83180  0.59500  0.56810  Biso   1.000  H
  H2413    1.0000 0.85110  0.58200  0.57850  Biso   1.000  H
  H2414    1.0000 0.83800  0.54020  0.57440  Biso   1.000  H
  C2530    1.0000 0.87530  0.60750  0.73500  Biso   1.000  C
  H2415    1.0000 0.88260  0.62230  0.72870  Biso   1.000  H
  C2531    1.0000 0.88052  0.60580  0.76880  Biso   1.000  C
  C2532    1.0000 0.89590  0.62190  0.79110  Biso   1.000  C
  H2416    1.0000 0.90350  0.63520  0.78480  Biso   1.000  H
  C2533    1.0000 0.90070  0.61900  0.82320  Biso   1.000  C
  H2417    1.0000 0.91120  0.63160  0.83900  Biso   1.000  H
  C2534    1.0000 0.88952  0.59680  0.83130  Biso   1.000  C
  C2535    1.0000 0.87421  0.57940  0.80710  Biso   1.000  C
  H2418    1.0000 0.86660  0.56440  0.81250  Biso   1.000  H
  C2536    1.0000 0.90875  0.60170  0.88580  Biso   1.000  C
  H2419    1.0000 0.91770  0.59130  0.88100  Biso   1.000  H
  H2420    1.0000 0.90920  0.63720  0.88790  Biso   1.000  H
  C2537    1.0000 0.95240  0.25110  0.89700  Biso   1.000  C
  C2538    1.0000 0.95350  0.22180  0.92060  Biso   1.000  C
  H2421    1.0000 0.95120  0.23440  0.93640  Biso   1.000  H
  C2539    1.0000 0.95780  0.17470  0.92170  Biso   1.000  C
  H2422    1.0000 0.95770  0.15430  0.93730  Biso   1.000  H
  C2540    1.0000 0.96240  0.15630  0.90080  Biso   1.000  C
  C2541    1.0000 0.96150  0.18450  0.87780  Biso   1.000  C
  H2423    1.0000 0.96500  0.17240  0.86340  Biso   1.000  H
  C2542    1.0000 0.95560  0.23190  0.87460  Biso   1.000  C
  H2424    1.0000 0.95390  0.25060  0.85680  Biso   1.000  H
  C2543    1.0000 0.96860  0.10340  0.90510  Biso   1.000  C
  H2425    1.0000 0.96560  0.08960  0.88440  Biso   1.000  H
  H2426    1.0000 0.98090  0.10250  0.91860  Biso   1.000  H
  H2427    1.0000 0.96320  0.08470  0.91490  Biso   1.000  H
  C2544    1.0000 0.93600  0.31250  0.90130  Biso   1.000  C
  H2428    1.0000 0.92960  0.28810  0.90450  Biso   1.000  H
  C2545    1.0000 0.93200  0.36390  0.90280  Biso   1.000  C
  C2546    1.0000 0.91950  0.37520  0.90980  Biso   1.000  C
  H2429    1.0000 0.91360  0.35050  0.91390  Biso   1.000  H
  C2547    1.0000 0.91538  0.42370  0.91070  Biso   1.000  C
  H2430    1.0000 0.90610  0.43240  0.91370  Biso   1.000  H
  C2548    1.0000 0.92511  0.45780  0.90720  Biso   1.000  C
  C2549    1.0000 0.93862  0.44220  0.90250  Biso   1.000  C
  H2431    1.0000 0.94520  0.46590  0.89940  Biso   1.000  H
  C2550    1.0000 0.91016  0.52370  0.91390  Biso   1.000  C
  H2432    1.0000 0.89890  0.51440  0.89630  Biso   1.000  H
  H2433    1.0000 0.91150  0.50960  0.93370  Biso   1.000  H
  C2551    1.0000 0.91165  0.57870  0.91670  Biso   1.000  C
  C2552    1.0000 0.92979  0.59320  0.94280  Biso   1.000  C
  H2434    1.0000 0.93020  0.62800  0.94630  Biso   1.000  H
  H2435    1.0000 0.93250  0.57640  0.96260  Biso   1.000  H
  H2436    1.0000 0.93800  0.58430  0.93600  Biso   1.000  H
  O175     1.0000 0.81176  0.40440  0.64240  Biso   1.000  O
  O176     1.0000 0.78521  0.28010  0.62880  Biso   1.000  O
  O177     1.0000 0.82564  0.26570  0.64330  Biso   1.000  O
  N349     1.0000 0.82250  0.59860  0.71590  Biso   1.000  N
  N350     1.0000 0.82360  0.51200  0.68790  Biso   1.000  N
  N351     1.0000 0.73544  0.14080  0.64260  Biso   1.000  N
  N352     1.0000 0.75842  0.20800  0.64590  Biso   1.000  N
  N353     1.0000 0.88533  0.12960  0.72890  Biso   1.000  N
  N354     1.0000 0.85951  0.18280  0.68170  Biso   1.000  N
  C2553    1.0000 0.82280  0.64740  0.72440  Biso   1.000  C
  C2554    1.0000 0.83580  0.66470  0.75260  Biso   1.000  C
  H2437    1.0000 0.84390  0.64290  0.76720  Biso   1.000  H
  C2555    1.0000 0.83710  0.71360  0.75990  Biso   1.000  C
  H2438    1.0000 0.84620  0.72500  0.77920  Biso   1.000  H
  C2556    1.0000 0.82530  0.74530  0.73910  Biso   1.000  C
  C2557    1.0000 0.81160  0.72750  0.71230  Biso   1.000  C
  H2439    1.0000 0.80320  0.74900  0.69800  Biso   1.000  H
  C2558    1.0000 0.80990  0.67730  0.70570  Biso   1.000  C
  H2440    1.0000 0.79990  0.66480  0.68850  Biso   1.000  H
  C2559    1.0000 0.82550  0.79820  0.74680  Biso   1.000  C
  H2441    1.0000 0.82770  0.81730  0.73210  Biso   1.000  H
  H2442    1.0000 0.81460  0.80730  0.74480  Biso   1.000  H
  H2443    1.0000 0.83450  0.80410  0.76860  Biso   1.000  H
  C2560    1.0000 0.80910  0.57710  0.69610  Biso   1.000  C
  H2444    1.0000 0.79860  0.59260  0.68990  Biso   1.000  H
  C2561    1.0000 0.80873  0.53060  0.68220  Biso   1.000  C
  C2562    1.0000 0.79400  0.50490  0.66630  Biso   1.000  C
  H2445    1.0000 0.78360  0.51710  0.66400  Biso   1.000  H
  C2563    1.0000 0.79460  0.46120  0.65390  Biso   1.000  C
  H2446    1.0000 0.78470  0.44190  0.64360  Biso   1.000  H
  C2564    1.0000 0.80941  0.44540  0.65620  Biso   1.000  C
  C2565    1.0000 0.82369  0.46970  0.67500  Biso   1.000  C
  H2447    1.0000 0.83420  0.45620  0.67930  Biso   1.000  H
  C2566    1.0000 0.79756  0.37300  0.62580  Biso   1.000  C
  H2448    1.0000 0.79220  0.36590  0.63890  Biso   1.000  H
  H2449    1.0000 0.78910  0.38820  0.60580  Biso   1.000  H
  C2567    1.0000 0.72316  0.10520  0.64120  Biso   1.000  C
  C2568    1.0000 0.71270  0.11650  0.65300  Biso   1.000  C
  H2450    1.0000 0.71380  0.14690  0.66270  Biso   1.000  H
  C2569    1.0000 0.70060  0.08460  0.65120  Biso   1.000  C
  H2451    1.0000 0.69300  0.09380  0.65840  Biso   1.000  H
  C2570    1.0000 0.69970  0.03890  0.63880  Biso   1.000  C
  C2571    1.0000 0.71110  0.02670  0.62990  Biso   1.000  C
  H2452    1.0000 0.71130  0.99440  0.62360  Biso   1.000  H
  C2572    1.0000 0.72310  0.05990  0.62950  Biso   1.000  C
  H2453    1.0000 0.73060  0.05130  0.62170  Biso   1.000  H
  C2573    1.0000 0.68700  0.00070  0.63750  Biso   1.000  C
  H2454    1.0000 0.67570  0.00790  0.61990  Biso   1.000  H
  H2455    1.0000 0.69060  0.96880  0.63450  Biso   1.000  H
  H2456    1.0000 0.68660  0.00120  0.65740  Biso   1.000  H
  C2574    1.0000 0.73763  0.14590  0.61850  Biso   1.000  C
  H2457    1.0000 0.73130  0.12670  0.60020  Biso   1.000  H
  C2575    1.0000 0.74984  0.18120  0.61880  Biso   1.000  C
  C2576    1.0000 0.75218  0.18800  0.59330  Biso   1.000  C
  H2458    1.0000 0.74580  0.16960  0.57460  Biso   1.000  H
  C2577    1.0000 0.76382  0.22160  0.59390  Biso   1.000  C
  H2459    1.0000 0.76560  0.22630  0.57630  Biso   1.000  H
  C2578    1.0000 0.77279  0.24800  0.62200  Biso   1.000  C
  C2579    1.0000 0.76965  0.23940  0.64730  Biso   1.000  C
  H2460    1.0000 0.77600  0.25700  0.66640  Biso   1.000  H
  C2580    1.0000 0.78992  0.28990  0.60480  Biso   1.000  C
  H2461    1.0000 0.79370  0.26010  0.59900  Biso   1.000  H
  H2462    1.0000 0.78020  0.30310  0.58560  Biso   1.000  H
  C2581    1.0000 0.90070  0.10770  0.75200  Biso   1.000  C
  C2582    1.0000 0.91550  0.13280  0.77050  Biso   1.000  C
  H2463    1.0000 0.91580  0.16660  0.76820  Biso   1.000  H
  C2583    1.0000 0.92990  0.10800  0.79280  Biso   1.000  C
  H2464    1.0000 0.94010  0.12530  0.80520  Biso   1.000  H
  C2584    1.0000 0.92950  0.05880  0.79670  Biso   1.000  C
  C2585    1.0000 0.91510  0.03470  0.77860  Biso   1.000  C
  H2465    1.0000 0.91460  0.00110  0.78140  Biso   1.000  H
  C2586    1.0000 0.90110  0.05910  0.75550  Biso   1.000  C
  H2466    1.0000 0.89130  0.04100  0.74160  Biso   1.000  H
  C2587    1.0000 0.94540  0.03090  0.82080  Biso   1.000  C
  H2467    1.0000 0.95130  0.04930  0.84050  Biso   1.000  H
  H2468    1.0000 0.94210  0.99950  0.82510  Biso   1.000  H
  H2469    1.0000 0.95310  0.02630  0.81190  Biso   1.000  H
  C2588    1.0000 0.88031  0.16740  0.73600  Biso   1.000  C
  H2470    1.0000 0.88600  0.17820  0.75740  Biso   1.000  H
  C2589    1.0000 0.86588  0.19550  0.71250  Biso   1.000  C
  C2590    1.0000 0.85930  0.23160  0.72200  Biso   1.000  C
  H2471    1.0000 0.86420  0.23950  0.74380  Biso   1.000  H
  C2591    1.0000 0.84550  0.25710  0.69960  Biso   1.000  C
  H2472    1.0000 0.84080  0.28290  0.70570  Biso   1.000  H
  C2592    1.0000 0.83887  0.24420  0.66870  Biso   1.000  C
  C2593    1.0000 0.84685  0.20730  0.66080  Biso   1.000  C
  H2473    1.0000 0.84270  0.20020  0.63900  Biso   1.000  H
  C2594    1.0000 0.81900  0.30880  0.64970  Biso   1.000  C
  H2474    1.0000 0.81510  0.30190  0.66520  Biso   1.000  H
  H2475    1.0000 0.82790  0.33370  0.65880  Biso   1.000  H
  C2595    1.0000 0.80432  0.32670  0.61880  Biso   1.000  C
  C2596    1.0000 0.81059  0.33500  0.59450  Biso   1.000  C
  H2476    1.0000 0.80120  0.34720  0.57470  Biso   1.000  H
  H2477    1.0000 0.81980  0.35860  0.60300  Biso   1.000  H
  H2478    1.0000 0.81470  0.30460  0.59050  Biso   1.000  H
  O178     1.0000 0.84859  0.24960  0.10050  Biso   1.000  O
  O179     1.0000 0.88569  0.34680  0.11660  Biso   1.000  O
  O180     1.0000 0.89745  0.22940  0.12180  Biso   1.000  O
  N355     1.0000 0.77373  0.22420  0.99340  Biso   1.000  N
  N356     1.0000 0.80726  0.21740  0.04070  Biso   1.000  N
  N357     1.0000 0.91576  0.53860  0.09960  Biso   1.000  N
  N358     1.0000 0.89795  0.45690  0.09660  Biso   1.000  N
  N359     1.0000 0.94167  0.14000  0.06830  Biso   1.000  N
  N360     1.0000 0.92674  0.17290  0.10320  Biso   1.000  N
  C2597    1.0000 0.75668  0.22770  0.96950  Biso   1.000  C
  C2598    1.0000 0.74900  0.27120  0.95640  Biso   1.000  C
  H2479    1.0000 0.75510  0.30040  0.96420  Biso   1.000  H
  C2599    1.0000 0.73240  0.27220  0.93210  Biso   1.000  C
  H2480    1.0000 0.72690  0.30220  0.92460  Biso   1.000  H
  C2600    1.0000 0.72390  0.23060  0.91870  Biso   1.000  C
  C2601    1.0000 0.73140  0.18730  0.93210  Biso   1.000  C
  H2481    1.0000 0.72530  0.15820  0.92380  Biso   1.000  H
  C2602    1.0000 0.74799  0.18580  0.95810  Biso   1.000  C
  H2482    1.0000 0.75300  0.15590  0.96740  Biso   1.000  H
  C2603    1.0000 0.70640  0.23060  0.88990  Biso   1.000  C
  H2483    1.0000 0.70190  0.19780  0.88580  Biso   1.000  H
  H2484    1.0000 0.69900  0.25170  0.89380  Biso   1.000  H
  H2485    1.0000 0.70710  0.24230  0.87150  Biso   1.000  H
  C2604    1.0000 0.78079  0.25880  0.01340  Biso   1.000  C
  H2486    1.0000 0.77400  0.28560  0.01240  Biso   1.000  H
  C2605    1.0000 0.79848  0.25880  0.03730  Biso   1.000  C
  C2606    1.0000 0.80620  0.29890  0.05540  Biso   1.000  C
  H2487    1.0000 0.79970  0.32670  0.05350  Biso   1.000  H
  C2607    1.0000 0.82320  0.29890  0.07630  Biso   1.000  C
  H2488    1.0000 0.82880  0.32690  0.08800  Biso   1.000  H
  C2608    1.0000 0.83186  0.25720  0.07950  Biso   1.000  C
  C2609    1.0000 0.82370  0.21770  0.06210  Biso   1.000  C
  H2489    1.0000 0.83000  0.18900  0.06520  Biso   1.000  H
  C2610    1.0000 0.85924  0.29120  0.11450  Biso   1.000  C
  H2490    1.0000 0.85740  0.31500  0.09790  Biso   1.000  H
  H2491    1.0000 0.85650  0.30660  0.12990  Biso   1.000  H
  C2611    1.0000 0.92530  0.58040  0.09960  Biso   1.000  C
  C2612    1.0000 0.91740  0.61910  0.08100  Biso   1.000  C
  H2492    1.0000 0.90540  0.61880  0.06840  Biso   1.000  H
  C2613    1.0000 0.92620  0.65880  0.07980  Biso   1.000  C
  H2493    1.0000 0.92040  0.68490  0.06620  Biso   1.000  H
  C2614    1.0000 0.94370  0.66060  0.09840  Biso   1.000  C
  C2615    1.0000 0.95140  0.62310  0.11760  Biso   1.000  C
  H2494    1.0000 0.96340  0.62410  0.13040  Biso   1.000  H
  C2616    1.0000 0.94270  0.58190  0.11980  Biso   1.000  C
  H2495    1.0000 0.94850  0.55670  0.13430  Biso   1.000  H
  C2617    1.0000 0.95470  0.70090  0.09560  Biso   1.000  C
  H2496    1.0000 0.94740  0.72380  0.07920  Biso   1.000  H
  H2497    1.0000 0.96090  0.71770  0.11600  Biso   1.000  H
  H2498    1.0000 0.96280  0.68680  0.09000  Biso   1.000  H
  C2618    1.0000 0.92000  0.51570  0.12560  Biso   1.000  C
  H2499    1.0000 0.92890  0.52760  0.14510  Biso   1.000  H
  C2619    1.0000 0.91122  0.47120  0.12510  Biso   1.000  C
  C2620    1.0000 0.91530  0.44590  0.15230  Biso   1.000  C
  H2500    1.0000 0.92410  0.45740  0.17190  Biso   1.000  H
  C2621    1.0000 0.90689  0.40390  0.15170  Biso   1.000  C
  H2501    1.0000 0.90940  0.38690  0.17060  Biso   1.000  H
  C2622    1.0000 0.89452  0.38770  0.12210  Biso   1.000  C
  C2623    1.0000 0.89004  0.41610  0.09530  Biso   1.000  C
  H2502    1.0000 0.88110  0.40580  0.07550  Biso   1.000  H
  C2624    1.0000 0.88962  0.31650  0.14380  Biso   1.000  C
  H2503    1.0000 0.90150  0.30530  0.15380  Biso   1.000  H
  H2504    1.0000 0.88790  0.33440  0.15980  Biso   1.000  H
  C2625    1.0000 0.94850  0.12060  0.04930  Biso   1.000  C
  C2626    1.0000 0.93910  0.09860  0.02070  Biso   1.000  C
  H2505    1.0000 0.92720  0.09600  0.01250  Biso   1.000  H
  C2627    1.0000 0.94620  0.08020  0.00340  Biso   1.000  C
  H2506    1.0000 0.93940  0.06520  0.98350  Biso   1.000  H
  C2628    1.0000 0.96370  0.08390  0.01580  Biso   1.000  C
  C2629    1.0000 0.97320  0.10670  0.04360  Biso   1.000  C
  H2507    1.0000 0.98500  0.11120  0.05140  Biso   1.000  H
  C2630    1.0000 0.96550  0.12340  0.06080  Biso   1.000  C
  H2508    1.0000 0.97240  0.13710  0.08120  Biso   1.000  H
  C2631    1.0000 0.97140  0.06320  0.99610  Biso   1.000  C
  H2509    1.0000 0.96250  0.04820  0.97680  Biso   1.000  H
  H2510    1.0000 0.98000  0.03900  0.00860  Biso   1.000  H
  H2511    1.0000 0.97670  0.08910  0.99030  Biso   1.000  H
  C2632    1.0000 0.92650  0.15190  0.05450  Biso   1.000  C
  H2512    1.0000 0.92020  0.14880  0.03210  Biso   1.000  H
  C2633    1.0000 0.91776  0.17030  0.07130  Biso   1.000  C
  C2634    1.0000 0.90139  0.18500  0.05480  Biso   1.000  C
  H2513    1.0000 0.89530  0.18250  0.03240  Biso   1.000  H
  C2635    1.0000 0.89367  0.20350  0.07110  Biso   1.000  C
  H2514    1.0000 0.88210  0.21290  0.06010  Biso   1.000  H
  C2636    1.0000 0.90279  0.20820  0.10300  Biso   1.000  C
  C2637    1.0000 0.91983  0.19260  0.11810  Biso   1.000  C
  H2515    1.0000 0.92650  0.19680  0.14030  Biso   1.000  H
  C2638    1.0000 0.88012  0.24650  0.10640  Biso   1.000  C
  H2516    1.0000 0.87800  0.26790  0.08850  Biso   1.000  H
  H2517    1.0000 0.87220  0.21900  0.09810  Biso   1.000  H
  C2639    1.0000 0.87750  0.27390  0.13110  Biso   1.000  C
  C2640    1.0000 0.88090  0.24030  0.15970  Biso   1.000  C
  H2518    1.0000 0.87330  0.21250  0.15200  Biso   1.000  H
  H2519    1.0000 0.89270  0.22910  0.16990  Biso   1.000  H
  H2520    1.0000 0.87900  0.25820  0.17510  Biso   1.000  H
  O181     1.0000 0.97878  0.37070  0.02510  Biso   1.000  O
  O182     1.0000 0.97303  0.31060  0.09660  Biso   1.000  O
  O183     1.0000 0.94670  0.40640  0.05860  Biso   1.000  O
  N361     1.0000 0.98830  0.30760  0.91110  Biso   1.000  N
  N362     1.0000 0.97914  0.34360  0.95360  Biso   1.000  N
  N363     1.0000 0.96098  0.15630  0.17630  Biso   1.000  N
  N364     1.0000 0.96659  0.21100  0.13500  Biso   1.000  N
  N365     1.0000 0.87174  0.46240  0.00940  Biso   1.000  N
  N366     1.0000 0.90637  0.45270  0.03810  Biso   1.000  N
  C2641    1.0000 0.99340  0.29340  0.88890  Biso   1.000  C
  C2642    1.0000 0.99810  0.24730  0.88720  Biso   1.000  C
  H2521    1.0000 0.99810  0.22400  0.90160  Biso   1.000  H
  C2643    1.0000 0.00290  0.23350  0.86510  Biso   1.000  C
  H2522    1.0000 0.00570  0.20100  0.86390  Biso   1.000  H
  C2644    1.0000 0.00350  0.26730  0.84500  Biso   1.000  C
  C2645    1.0000 0.99920  0.31380  0.84780  Biso   1.000  C
  H2523    1.0000 0.99850  0.33680  0.83270  Biso   1.000  H
  C2646    1.0000 0.99560  0.32990  0.87240  Biso   1.000  C
  H2524    1.0000 0.99480  0.36280  0.87660  Biso   1.000  H
  C2647    1.0000 0.00860  0.25230  0.82050  Biso   1.000  C
  H2525    1.0000 0.00130  0.26850  0.80040  Biso   1.000  H
  H2526    1.0000 0.02040  0.26140  0.82790  Biso   1.000  H
  H2527    1.0000 0.00740  0.21740  0.81740  Biso   1.000  H
  C2648    1.0000 0.99450  0.28930  0.93910  Biso   1.000  C
  H2528    1.0000 0.00200  0.26300  0.94440  Biso   1.000  H
  C2649    1.0000 0.99040  0.30710  0.96280  Biso   1.000  C
  C2650    1.0000 0.99840  0.29040  0.99310  Biso   1.000  C
  H2529    1.0000 0.00680  0.26600  0.99900  Biso   1.000  H
  C2651    1.0000 0.99450  0.30850  0.01490  Biso   1.000  C
  H2530    1.0000 0.99910  0.29510  0.03560  Biso   1.000  H
  C2652    1.0000 0.98364  0.34640  0.00610  Biso   1.000  C
  C2653    1.0000 0.97540  0.36050  0.97530  Biso   1.000  C
  H2531    1.0000 0.96660  0.38340  0.96890  Biso   1.000  H
  C2654    1.0000 0.98410  0.35250  0.05670  Biso   1.000  C
  H2532    1.0000 0.98150  0.31770  0.05600  Biso   1.000  H
  H2533    1.0000 0.99650  0.35710  0.07040  Biso   1.000  H
  C2655    1.0000 0.95640  0.12730  0.19590  Biso   1.000  C
  C2656    1.0000 0.95820  0.07900  0.19590  Biso   1.000  C
  H2534    1.0000 0.96230  0.06450  0.18320  Biso   1.000  H
  C2657    1.0000 0.95390  0.05090  0.21450  Biso   1.000  C
  H2535    1.0000 0.95540  0.01700  0.21480  Biso   1.000  H
  C2658    1.0000 0.94750  0.07100  0.23290  Biso   1.000  C
  C2659    1.0000 0.94660  0.11860  0.23430  Biso   1.000  C
  H2536    1.0000 0.94250  0.13250  0.24730  Biso   1.000  H
  C2660    1.0000 0.95170  0.14890  0.21640  Biso   1.000  C
  H2537    1.0000 0.95180  0.18290  0.21860  Biso   1.000  H
  C2661    1.0000 0.94240  0.03830  0.25270  Biso   1.000  C
  H2538    1.0000 0.95250  0.02410  0.27030  Biso   1.000  H
  H2539    1.0000 0.93640  0.05750  0.26110  Biso   1.000  H
  H2540    1.0000 0.93490  0.01260  0.23920  Biso   1.000  H
  C2662    1.0000 0.96790  0.19790  0.18500  Biso   1.000  C
  H2541    1.0000 0.97150  0.20800  0.20610  Biso   1.000  H
  C2663    1.0000 0.97050  0.23030  0.16400  Biso   1.000  C
  C2664    1.0000 0.97770  0.27450  0.17340  Biso   1.000  C
  H2542    1.0000 0.98170  0.28490  0.19460  Biso   1.000  H
  C2665    1.0000 0.97940  0.30450  0.15160  Biso   1.000  C
  H2543    1.0000 0.98440  0.33540  0.15770  Biso   1.000  H
  C2666    1.0000 0.97350  0.28780  0.12130  Biso   1.000  C
  C2667    1.0000 0.96730  0.24050  0.11380  Biso   1.000  C
  H2544    1.0000 0.96350  0.22900  0.09290  Biso   1.000  H
  C2668    1.0000 0.97800  0.36030  0.10110  Biso   1.000  C
  H2545    1.0000 0.97160  0.37820  0.10950  Biso   1.000  H
  H2546    1.0000 0.99020  0.36310  0.11650  Biso   1.000  H
  C2669    1.0000 0.85400  0.47290  0.99430  Biso   1.000  C
  C2670    1.0000 0.84568  0.49470  0.96540  Biso   1.000  C
  H2547    1.0000 0.85130  0.49980  0.95340  Biso   1.000  H
  C2671    1.0000 0.82936  0.50920  0.95380  Biso   1.000  C
  H2548    1.0000 0.82390  0.52540  0.93400  Biso   1.000  H
  C2672    1.0000 0.82051  0.50110  0.97020  Biso   1.000  C
  C2673    1.0000 0.82868  0.48000  0.99880  Biso   1.000  C
  H2549    1.0000 0.82300  0.47410  0.01060  Biso   1.000  H
  C2674    1.0000 0.84564  0.46670  0.01130  Biso   1.000  C
  H2550    1.0000 0.85150  0.45310  0.03190  Biso   1.000  H
  C2675    1.0000 0.80212  0.51670  0.95590  Biso   1.000  C
  H2551    1.0000 0.79930  0.53790  0.93780  Biso   1.000  H
  H2552    1.0000 0.79480  0.48830  0.94880  Biso   1.000  H
  H2553    1.0000 0.80050  0.53400  0.97180  Biso   1.000  H
  C2676    1.0000 0.87804  0.43980  0.99580  Biso   1.000  C
  H2554    1.0000 0.87070  0.42740  0.97530  Biso   1.000  H
  C2677    1.0000 0.89628  0.43120  0.00970  Biso   1.000  C
  C2678    1.0000 0.90266  0.39980  0.99640  Biso   1.000  C
  H2555    1.0000 0.89540  0.38490  0.97670  Biso   1.000  H
  C2679    1.0000 0.91990  0.38980  0.01180  Biso   1.000  C
  H2556    1.0000 0.92450  0.36720  0.00330  Biso   1.000  H
  C2680    1.0000 0.92990  0.41300  0.03930  Biso   1.000  C
  C2681    1.0000 0.92237  0.44360  0.05170  Biso   1.000  C
  H2557    1.0000 0.92950  0.45860  0.07140  Biso   1.000  H
  C2682    1.0000 0.95558  0.37800  0.04590  Biso   1.000  C
  H2558    1.0000 0.95180  0.34410  0.04320  Biso   1.000  H
  H2559    1.0000 0.95320  0.39080  0.02510  Biso   1.000  H
  C2683    1.0000 0.97437  0.38100  0.06920  Biso   1.000  C
  C2684    1.0000 0.98070  0.43340  0.07610  Biso   1.000  C
  H2560    1.0000 0.97860  0.44910  0.05630  Biso   1.000  H
  H2561    1.0000 0.97460  0.45080  0.08510  Biso   1.000  H
  H2562    1.0000 0.99280  0.43380  0.09110  Biso   1.000  H
  O184     1.0000 0.90519  0.30190  0.69130  Biso   1.000  O
  O185     1.0000 0.93080  0.38690  0.76800  Biso   1.000  O
  O186     1.0000 0.89072  0.42180  0.72180  Biso   1.000  O
  N367     1.0000 0.89872  0.07780  0.68240  Biso   1.000  N
  N368     1.0000 0.89563  0.17800  0.68080  Biso   1.000  N
  N369     1.0000 0.98234  0.43130  0.90840  Biso   1.000  N
  N370     1.0000 0.95777  0.39750  0.85050  Biso   1.000  N
  N371     1.0000 0.83743  0.49120  0.75900  Biso   1.000  N
  N372     1.0000 0.86071  0.47690  0.73900  Biso   1.000  N
  C2685    1.0000 0.89980  0.02760  0.67850  Biso   1.000  C
  C2686    1.0000 0.91156  0.00750  0.67160  Biso   1.000  C
  H2563    1.0000 0.91950  0.02720  0.66930  Biso   1.000  H
  C2687    1.0000 0.91160  0.95770  0.66820  Biso   1.000  C
  H2564    1.0000 0.91940  0.94400  0.66260  Biso   1.000  H
  C2688    1.0000 0.90100  0.92790  0.67240  Biso   1.000  C
  C2689    1.0000 0.88930  0.94750  0.67990  Biso   1.000  C
  H2565    1.0000 0.88190  0.92750  0.68340  Biso   1.000  H
  C2690    1.0000 0.88870  0.99820  0.68210  Biso   1.000  C
  H2566    1.0000 0.88040  0.01220  0.68620  Biso   1.000  H
  C2691    1.0000 0.90090  0.87390  0.66780  Biso   1.000  C
  H2567    1.0000 0.89460  0.86640  0.64510  Biso   1.000  H
  H2568    1.0000 0.91260  0.86240  0.67660  Biso   1.000  H
  H2569    1.0000 0.89550  0.85800  0.67870  Biso   1.000  H
  C2692    1.0000 0.91153  0.10510  0.69200  Biso   1.000  C
  H2570    1.0000 0.92220  0.09040  0.69920  Biso   1.000  H
  C2693    1.0000 0.91097  0.15760  0.69290  Biso   1.000  C
  C2694    1.0000 0.92524  0.18460  0.70520  Biso   1.000  C
  H2571    1.0000 0.93590  0.16920  0.71330  Biso   1.000  H
  C2695    1.0000 0.92451  0.23400  0.70620  Biso   1.000  C
  H2572    1.0000 0.93440  0.25330  0.71540  Biso   1.000  H
  C2696    1.0000 0.90855  0.25360  0.69290  Biso   1.000  C
  C2697    1.0000 0.89475  0.22520  0.68100  Biso   1.000  C
  H2573    1.0000 0.88390  0.23990  0.67240  Biso   1.000  H
  C2698    1.0000 0.91896  0.33180  0.71260  Biso   1.000  C
  H2574    1.0000 0.92460  0.31770  0.73410  Biso   1.000  H
  H2575    1.0000 0.92740  0.33490  0.70530  Biso   1.000  H
  C2699    1.0000 0.99560  0.44890  0.93870  Biso   1.000  C
  C2700    1.0000 0.00830  0.41930  0.95870  Biso   1.000  C
  H2576    1.0000 0.00820  0.38670  0.95290  Biso   1.000  H
  C2701    1.0000 0.02130  0.43530  0.98740  Biso   1.000  C
  H2577    1.0000 0.03030  0.41410  0.00030  Biso   1.000  H
  C2702    1.0000 0.02140  0.48170  0.99720  Biso   1.000  C
  C2703    1.0000 0.00830  0.51040  0.97860  Biso   1.000  C
  H2578    1.0000 0.00760  0.54120  0.98640  Biso   1.000  H
  C2704    1.0000 0.99530  0.49670  0.94760  Biso   1.000  C
  H2579    1.0000 0.98700  0.51890  0.93390  Biso   1.000  H
  C2705    1.0000 0.03510  0.50020  0.03000  Biso   1.000  C
  H2580    1.0000 0.04480  0.51230  0.02830  Biso   1.000  H
  H2581    1.0000 0.03040  0.52620  0.03700  Biso   1.000  H
  H2582    1.0000 0.03880  0.47380  0.04530  Biso   1.000  H
  C2706    1.0000 0.97850  0.45650  0.88360  Biso   1.000  C
  H2583    1.0000 0.98400  0.48630  0.88580  Biso   1.000  H
  C2707    1.0000 0.96570  0.44070  0.85220  Biso   1.000  C
  C2708    1.0000 0.96250  0.46700  0.82600  Biso   1.000  C
  H2584    1.0000 0.96860  0.49590  0.82850  Biso   1.000  H
  C2709    1.0000 0.95050  0.45280  0.79570  Biso   1.000  C
  H2585    1.0000 0.94790  0.47130  0.77730  Biso   1.000  H
  C2710    1.0000 0.94250  0.40870  0.79440  Biso   1.000  C
  C2711    1.0000 0.94650  0.38250  0.82190  Biso   1.000  C
  H2586    1.0000 0.94080  0.35280  0.82000  Biso   1.000  H
  C2712    1.0000 0.92576  0.41160  0.73830  Biso   1.000  C
  H2587    1.0000 0.92180  0.44460  0.73890  Biso   1.000  H
  H2588    1.0000 0.93530  0.41360  0.73390  Biso   1.000  H
  C2713    1.0000 0.82302  0.49760  0.76340  Biso   1.000  C
  C2714    1.0000 0.80970  0.46690  0.75120  Biso   1.000  C
  H2589    1.0000 0.81030  0.43830  0.74110  Biso   1.000  H
  C2715    1.0000 0.79530  0.47650  0.75330  Biso   1.000  C
  H2590    1.0000 0.78590  0.45510  0.74390  Biso   1.000  H
  C2716    1.0000 0.79440  0.51720  0.76900  Biso   1.000  C
  C2717    1.0000 0.80720  0.54800  0.77920  Biso   1.000  C
  H2591    1.0000 0.80640  0.57770  0.78820  Biso   1.000  H
  C2718    1.0000 0.82170  0.53830  0.77720  Biso   1.000  C
  H2592    1.0000 0.83080  0.56060  0.78570  Biso   1.000  H
  C2719    1.0000 0.77870  0.52860  0.77260  Biso   1.000  C
  H2593    1.0000 0.76850  0.51730  0.75380  Biso   1.000  H
  H2594    1.0000 0.77980  0.51240  0.79150  Biso   1.000  H
  H2595    1.0000 0.77800  0.56340  0.77480  Biso   1.000  H
  C2720    1.0000 0.84330  0.44950  0.76050  Biso   1.000  C
  H2596    1.0000 0.84010  0.42440  0.76990  Biso   1.000  H
  C2721    1.0000 0.85490  0.43890  0.74830  Biso   1.000  C
  C2722    1.0000 0.86090  0.39330  0.74940  Biso   1.000  C
  H2597    1.0000 0.85690  0.36750  0.75690  Biso   1.000  H
  C2723    1.0000 0.87270  0.38480  0.73970  Biso   1.000  C
  H2598    1.0000 0.87650  0.35310  0.73920  Biso   1.000  H
  C2724    1.0000 0.87868  0.42330  0.73080  Biso   1.000  C
  C2725    1.0000 0.87236  0.46880  0.73150  Biso   1.000  C
  H2599    1.0000 0.87700  0.49560  0.72620  Biso   1.000  H
  C2726    1.0000 0.89725  0.37460  0.72050  Biso   1.000  C
  H2600    1.0000 0.90150  0.35800  0.74110  Biso   1.000  H
  H2601    1.0000 0.88820  0.35470  0.70390  Biso   1.000  H
  C2727    1.0000 0.91135  0.38170  0.71280  Biso   1.000  C
  C2728    1.0000 0.90600  0.40760  0.68050  Biso   1.000  C
  H2602    1.0000 0.89820  0.38700  0.66310  Biso   1.000  H
  H2603    1.0000 0.90040  0.43810  0.67990  Biso   1.000  H
  H2604    1.0000 0.91610  0.41390  0.67840  Biso   1.000  H
  O187     1.0000 0.83251  0.00040  0.69480  Biso   1.000  O
  O188     1.0000 0.83323  0.93730  0.77240  Biso   1.000  O
  O189     1.0000 0.80199  0.04200  0.71460  Biso   1.000  O
  N373     1.0000 0.85663  0.12520  0.61760  Biso   1.000  N
  N374     1.0000 0.85210  0.06920  0.66000  Biso   1.000  N
  N375     1.0000 0.87455  0.82040  0.89710  Biso   1.000  N
  N376     1.0000 0.85378  0.88100  0.84730  Biso   1.000  N
  N377     1.0000 0.77241  0.24060  0.72560  Biso   1.000  N
  N378     1.0000 0.77950  0.14840  0.71240  Biso   1.000  N
  C2729    1.0000 0.85971  0.15400  0.59660  Biso   1.000  C
  C2730    1.0000 0.84699  0.17840  0.57140  Biso   1.000  C
  H2605    1.0000 0.83570  0.17600  0.56760  Biso   1.000  H
  C2731    1.0000 0.85058  0.20650  0.55160  Biso   1.000  C
  H2606    1.0000 0.84170  0.22260  0.53410  Biso   1.000  H
  C2732    1.0000 0.86675  0.21100  0.55700  Biso   1.000  C
  C2733    1.0000 0.87958  0.18760  0.58250  Biso   1.000  C
  H2607    1.0000 0.89090  0.19110  0.58680  Biso   1.000  H
  C2734    1.0000 0.87595  0.15830  0.60270  Biso   1.000  C
  H2608    1.0000 0.88480  0.14210  0.62020  Biso   1.000  H
  C2735    1.0000 0.87080  0.24240  0.53600  Biso   1.000  C
  H2609    1.0000 0.86580  0.27430  0.53400  Biso   1.000  H
  H2610    1.0000 0.88310  0.24550  0.54530  Biso   1.000  H
  H2611    1.0000 0.86620  0.22770  0.51490  Biso   1.000  H
  C2736    1.0000 0.84322  0.10010  0.60790  Biso   1.000  C
  H2612    1.0000 0.83510  0.10070  0.58600  Biso   1.000  H
  C2737    1.0000 0.83990  0.07080  0.62910  Biso   1.000  C
  C2738    1.0000 0.82472  0.04760  0.61820  Biso   1.000  C
  H2613    1.0000 0.81640  0.04980  0.59650  Biso   1.000  H
  C2739    1.0000 0.82160  0.02090  0.63890  Biso   1.000  C
  H2614    1.0000 0.81160  0.00220  0.63170  Biso   1.000  H
  C2740    1.0000 0.83349  0.02260  0.67030  Biso   1.000  C
  C2741    1.0000 0.84860  0.04440  0.67960  Biso   1.000  C
  H2615    1.0000 0.85710  0.04180  0.70110  Biso   1.000  H
  C2742    1.0000 0.81723  0.97630  0.68840  Biso   1.000  C
  H2616    1.0000 0.80730  0.99570  0.67400  Biso   1.000  H
  H2617    1.0000 0.81650  0.94470  0.67840  Biso   1.000  H
  C2743    1.0000 0.88504  0.78830  0.92310  Biso   1.000  C
  C2744    1.0000 0.90080  0.77390  0.92940  Biso   1.000  C
  H2618    1.0000 0.90580  0.78750  0.91780  Biso   1.000  H
  C2745    1.0000 0.90970  0.74000  0.95240  Biso   1.000  C
  H2619    1.0000 0.91980  0.72620  0.95410  Biso   1.000  H
  C2746    1.0000 0.90380  0.72610  0.97310  Biso   1.000  C
  C2747    1.0000 0.88850  0.74080  0.96730  Biso   1.000  C
  H2620    1.0000 0.88440  0.73080  0.98110  Biso   1.000  H
  C2748    1.0000 0.87810  0.77110  0.94080  Biso   1.000  C
  H2621    1.0000 0.86680  0.77890  0.93570  Biso   1.000  H
  C2749    1.0000 0.91480  0.69300  0.00150  Biso   1.000  C
  H2622    1.0000 0.91710  0.66300  0.99380  Biso   1.000  H
  H2623    1.0000 0.92540  0.70930  0.01570  Biso   1.000  H
  H2624    1.0000 0.90870  0.68590  0.01310  Biso   1.000  H
  C2750    1.0000 0.87610  0.82200  0.87230  Biso   1.000  C
  H2625    1.0000 0.88460  0.80270  0.87160  Biso   1.000  H
  C2751    1.0000 0.86540  0.85220  0.84460  Biso   1.000  C
  C2752    1.0000 0.86780  0.85500  0.81890  Biso   1.000  C
  H2626    1.0000 0.87710  0.83880  0.81920  Biso   1.000  H
  C2753    1.0000 0.85690  0.88110  0.79220  Biso   1.000  C
  H2627    1.0000 0.85750  0.87960  0.77320  Biso   1.000  H
  C2754    1.0000 0.84499  0.90930  0.79470  Biso   1.000  C
  C2755    1.0000 0.84366  0.90690  0.82230  Biso   1.000  C
  H2628    1.0000 0.83500  0.92500  0.82320  Biso   1.000  H
  C2756    1.0000 0.83346  0.94170  0.74250  Biso   1.000  C
  H2629    1.0000 0.84380  0.95900  0.74580  Biso   1.000  H
  H2630    1.0000 0.83330  0.90950  0.73370  Biso   1.000  H
  C2757    1.0000 0.76830  0.28450  0.73600  Biso   1.000  C
  C2758    1.0000 0.76930  0.28710  0.76500  Biso   1.000  C
  H2631    1.0000 0.77320  0.26030  0.77890  Biso   1.000  H
  C2759    1.0000 0.76470  0.32860  0.77400  Biso   1.000  C
  H2632    1.0000 0.76570  0.33050  0.79450  Biso   1.000  H
  C2760    1.0000 0.75860  0.36790  0.75380  Biso   1.000  C
  C2761    1.0000 0.75830  0.36560  0.72590  Biso   1.000  C
  H2633    1.0000 0.75490  0.39290  0.71240  Biso   1.000  H
  C2762    1.0000 0.76310  0.32350  0.71650  Biso   1.000  C
  H2634    1.0000 0.76260  0.32210  0.69650  Biso   1.000  H
  C2763    1.0000 0.75370  0.41500  0.76480  Biso   1.000  C
  H2635    1.0000 0.74320  0.41010  0.76540  Biso   1.000  H
  H2636    1.0000 0.76280  0.42360  0.78610  Biso   1.000  H
  H2637    1.0000 0.75220  0.44100  0.75000  Biso   1.000  H
  C2764    1.0000 0.78633  0.22150  0.74390  Biso   1.000  C
  H2638    1.0000 0.79410  0.23840  0.76240  Biso   1.000  H
  C2765    1.0000 0.79106  0.17350  0.73770  Biso   1.000  C
  C2766    1.0000 0.80680  0.15540  0.75560  Biso   1.000  C
  H2639    1.0000 0.81480  0.17400  0.77290  Biso   1.000  H
  C2767    1.0000 0.81160  0.11050  0.74990  Biso   1.000  C
  H2640    1.0000 0.82250  0.09730  0.76330  Biso   1.000  H
  C2768    1.0000 0.79970  0.08640  0.72370  Biso   1.000  C
  C2769    1.0000 0.78381  0.10710  0.70610  Biso   1.000  C
  H2641    1.0000 0.77560  0.08990  0.68820  Biso   1.000  H
  C2770    1.0000 0.81836  0.01930  0.73470  Biso   1.000  C
  H2642    1.0000 0.82760  0.03900  0.73530  Biso   1.000  H
  H2643    1.0000 0.82030  0.01570  0.75660  Biso   1.000  H
  C2771    1.0000 0.81778  0.96970  0.72020  Biso   1.000  C
  C2772    1.0000 0.80184  0.94230  0.71480  Biso   1.000  C
  H2644    1.0000 0.80240  0.90920  0.70850  Biso   1.000  H
  H2645    1.0000 0.80120  0.94220  0.73450  Biso   1.000  H
  H2646    1.0000 0.79180  0.95820  0.69810  Biso   1.000  H
  O190     1.0000 0.86407  0.94200  0.01510  Biso   1.000  O
  O191     1.0000 0.90067  0.01070  0.09230  Biso   1.000  O
  O192     1.0000 0.85013  0.04150  0.03830  Biso   1.000  O
  N379     1.0000 0.83557  0.81970  0.89160  Biso   1.000  N
  N380     1.0000 0.85290  0.87800  0.94390  Biso   1.000  N
  N381     1.0000 0.97389  0.07690  0.13330  Biso   1.000  N
  N382     1.0000 0.94086  0.06310  0.11800  Biso   1.000  N
  N383     1.0000 0.80387  0.21860  0.97370  Biso   1.000  N
  N384     1.0000 0.82036  0.13670  0.00670  Biso   1.000  N
  C2773    1.0000 0.82868  0.78570  0.86660  Biso   1.000  C
  C2774    1.0000 0.82950  0.73780  0.87290  Biso   1.000  C
  H2647    1.0000 0.83460  0.72730  0.89430  Biso   1.000  H
  C2775    1.0000 0.82300  0.70380  0.84890  Biso   1.000  C
  H2648    1.0000 0.82340  0.67060  0.85390  Biso   1.000  H
  C2776    1.0000 0.81600  0.71820  0.81760  Biso   1.000  C
  C2777    1.0000 0.81500  0.76670  0.81150  Biso   1.000  C
  H2649    1.0000 0.80950  0.77750  0.79020  Biso   1.000  H
  C2778    1.0000 0.82200  0.80120  0.83670  Biso   1.000  C
  H2650    1.0000 0.82190  0.83450  0.83220  Biso   1.000  H
  C2779    1.0000 0.80900  0.68010  0.79240  Biso   1.000  C
  H2651    1.0000 0.80410  0.69530  0.77150  Biso   1.000  H
  H2652    1.0000 0.81800  0.65820  0.79500  Biso   1.000  H
  H2653    1.0000 0.80020  0.66200  0.79420  Biso   1.000  H
  C2780    1.0000 0.83340  0.81490  0.91580  Biso   1.000  C
  H2654    1.0000 0.82600  0.79050  0.91540  Biso   1.000  H
  C2781    1.0000 0.84174  0.84520  0.94370  Biso   1.000  C
  C2782    1.0000 0.83729  0.84340  0.96690  Biso   1.000  C
  H2655    1.0000 0.82940  0.82010  0.96590  Biso   1.000  H
  C2783    1.0000 0.84436  0.87560  0.99210  Biso   1.000  C
  H2656    1.0000 0.84120  0.87590  0.00810  Biso   1.000  H
  C2784    1.0000 0.85617  0.90690  0.99250  Biso   1.000  C
  C2785    1.0000 0.85990  0.90760  0.96840  Biso   1.000  C
  H2657    1.0000 0.86790  0.93050  0.96920  Biso   1.000  H
  C2786    1.0000 0.86095  0.94250  0.04200  Biso   1.000  C
  H2658    1.0000 0.84890  0.94920  0.03480  Biso   1.000  H
  H2659    1.0000 0.86390  0.91110  0.05300  Biso   1.000  H
  C2787    1.0000 0.99150  0.08550  0.14300  Biso   1.000  C
  C2788    1.0000 0.00020  0.11860  0.16580  Biso   1.000  C
  H2660    1.0000 0.99480  0.13430  0.17580  Biso   1.000  H
  C2789    1.0000 0.01670  0.13010  0.17480  Biso   1.000  C
  H2661    1.0000 0.02200  0.15620  0.18890  Biso   1.000  H
  C2790    1.0000 0.02550  0.10390  0.16340  Biso   1.000  C
  C2791    1.0000 0.01720  0.06910  0.14210  Biso   1.000  C
  H2662    1.0000 0.02340  0.05030  0.13480  Biso   1.000  H
  C2792    1.0000 0.99960  0.05880  0.12980  Biso   1.000  C
  H2663    1.0000 0.99390  0.03540  0.11370  Biso   1.000  H
  C2793    1.0000 0.04380  0.11740  0.17200  Biso   1.000  C
  H2664    1.0000 0.04520  0.11440  0.15320  Biso   1.000  H
  H2665    1.0000 0.04600  0.15070  0.17970  Biso   1.000  H
  H2666    1.0000 0.05170  0.09580  0.18860  Biso   1.000  H
  C2794    1.0000 0.96753  0.03480  0.12550  Biso   1.000  C
  H2667    1.0000 0.97440  0.00940  0.12500  Biso   1.000  H
  C2795    1.0000 0.95002  0.02400  0.11730  Biso   1.000  C
  C2796    1.0000 0.94303  0.97930  0.10710  Biso   1.000  C
  H2668    1.0000 0.94980  0.95360  0.10670  Biso   1.000  H
  C2797    1.0000 0.92607  0.97170  0.09740  Biso   1.000  C
  H2669    1.0000 0.92080  0.94180  0.08880  Biso   1.000  H
  C2798    1.0000 0.91704  0.01010  0.10080  Biso   1.000  C
  C2799    1.0000 0.92480  0.05560  0.11030  Biso   1.000  C
  H2670    1.0000 0.91830  0.08180  0.11130  Biso   1.000  H
  C2800    1.0000 0.89038  0.97060  0.07390  Biso   1.000  C
  H2671    1.0000 0.89170  0.96550  0.05500  Biso   1.000  H
  H2672    1.0000 0.89390  0.94080  0.08680  Biso   1.000  H
  C2801    1.0000 0.79630  0.26420  0.95900  Biso   1.000  C
  C2802    1.0000 0.80400  0.30710  0.97150  Biso   1.000  C
  H2673    1.0000 0.81480  0.30730  0.98980  Biso   1.000  H
  C2803    1.0000 0.79640  0.34980  0.95810  Biso   1.000  C
  H2674    1.0000 0.80200  0.37920  0.96710  Biso   1.000  H
  C2804    1.0000 0.78050  0.35060  0.93150  Biso   1.000  C
  C2805    1.0000 0.77300  0.30880  0.91940  Biso   1.000  C
  H2675    1.0000 0.76220  0.30870  0.90080  Biso   1.000  H
  C2806    1.0000 0.78050  0.26480  0.93350  Biso   1.000  C
  H2676    1.0000 0.77450  0.23550  0.92530  Biso   1.000  H
  C2807    1.0000 0.77190  0.39950  0.91690  Biso   1.000  C
  H2677    1.0000 0.76740  0.39860  0.89390  Biso   1.000  H
  H2678    1.0000 0.76270  0.40530  0.92150  Biso   1.000  H
  H2679    1.0000 0.78030  0.42550  0.92600  Biso   1.000  H
  C2808    1.0000 0.81934  0.21300  0.98180  Biso   1.000  C
  H2680    1.0000 0.82520  0.23800  0.97790  Biso   1.000  H
  C2809    1.0000 0.82833  0.16880  0.99730  Biso   1.000  C
  C2810    1.0000 0.84385  0.16120  0.00230  Biso   1.000  C
  H2681    1.0000 0.84900  0.18390  0.99500  Biso   1.000  H
  C2811    1.0000 0.85280  0.11970  0.01840  Biso   1.000  C
  H2682    1.0000 0.86430  0.11550  0.02400  Biso   1.000  H
  C2812    1.0000 0.84433  0.08570  0.02560  Biso   1.000  C
  C2813    1.0000 0.82786  0.09640  0.01950  Biso   1.000  C
  H2683    1.0000 0.82200  0.07330  0.02500  Biso   1.000  H
  C2814    1.0000 0.86737  0.03100  0.04710  Biso   1.000  C
  H2684    1.0000 0.86880  0.03000  0.02800  Biso   1.000  H
  H2685    1.0000 0.87490  0.05630  0.06140  Biso   1.000  H
  C2815    1.0000 0.87207  0.98220  0.06390  Biso   1.000  C
  C2816    1.0000 0.86950  0.98350  0.09350  Biso   1.000  C
  H2686    1.0000 0.85770  0.99190  0.08690  Biso   1.000  H
  H2687    1.0000 0.87200  0.95190  0.10360  Biso   1.000  H
  H2688    1.0000 0.87700  0.00760  0.10850  Biso   1.000  H
