data_image0
_cell_length_a       18.0222
_cell_length_b       27.3672
_cell_length_c       24.9782
_cell_angle_alpha    90
_cell_angle_beta     104.179
_cell_angle_gamma    90

_symmetry_space_group_name_H-M    "P 1"
_symmetry_int_tables_number       1

loop_
  _symmetry_equiv_pos_as_xyz
  'x, y, z'

loop_
  _atom_site_label
  _atom_site_occupancy
  _atom_site_fract_x
  _atom_site_fract_y
  _atom_site_fract_z
  _atom_site_thermal_displace_type
  _atom_site_B_iso_or_equiv
  _atom_site_type_symbol
  C1       1.0000 0.40820  0.45875  0.23318  Biso   1.000  C
  C2       1.0000 0.35620  0.42116  0.22830  Biso   1.000  C
  C3       1.0000 0.28000  0.43120  0.22705  Biso   1.000  C
  C4       1.0000 0.25670  0.47840  0.23100  Biso   1.000  C
  C5       1.0000 0.30830  0.51621  0.23660  Biso   1.000  C
  C6       1.0000 0.38310  0.50699  0.23753  Biso   1.000  C
  C7       1.0000 0.41950  0.63994  0.12929  Biso   1.000  C
  C8       1.0000 0.36490  0.60374  0.12603  Biso   1.000  C
  C9       1.0000 0.28930  0.61553  0.12310  Biso   1.000  C
  C10      1.0000 0.26770  0.66375  0.12308  Biso   1.000  C
  C11      1.0000 0.32130  0.70032  0.12615  Biso   1.000  C
  C12      1.0000 0.39620  0.68819  0.12885  Biso   1.000  C
  C13      1.0000 0.40780  0.64291  0.33280  Biso   1.000  C
  C14      1.0000 0.37620  0.63370  0.37663  Biso   1.000  C
  C15      1.0000 0.30260  0.64880  0.37570  Biso   1.000  C
  C16      1.0000 0.26120  0.67360  0.33190  Biso   1.000  C
  C17      1.0000 0.29090  0.68308  0.28790  Biso   1.000  C
  C18      1.0000 0.36440  0.66757  0.28760  Biso   1.000  C
  C19      1.0000 0.52870  0.38570  0.24455  Biso   1.000  C
  C20      1.0000 0.55130  0.36962  0.29845  Biso   1.000  C
  C21      1.0000 0.56720  0.32047  0.30880  Biso   1.000  C
  C22      1.0000 0.56030  0.28802  0.26660  Biso   1.000  C
  C23      1.0000 0.53790  0.30392  0.21320  Biso   1.000  C
  C24      1.0000 0.52220  0.35305  0.20245  Biso   1.000  C
  C25      1.0000 0.52820  0.64436  0.06336  Biso   1.000  C
  C26      1.0000 0.51600  0.61161  0.01988  Biso   1.000  C
  C27      1.0000 0.51840  0.62695  0.96727  Biso   1.000  C
  C28      1.0000 0.53140  0.67530  0.95841  Biso   1.000  C
  C29      1.0000 0.54350  0.70857  0.00096  Biso   1.000  C
  C30      1.0000 0.54230  0.69320  0.05324  Biso   1.000  C
  C31      1.0000 0.56820  0.64450  0.39482  Biso   1.000  C
  C32      1.0000 0.60130  0.69039  0.39586  Biso   1.000  C
  C33      1.0000 0.65500  0.70558  0.44203  Biso   1.000  C
  C34      1.0000 0.67580  0.67571  0.48725  Biso   1.000  C
  C35      1.0000 0.64250  0.63032  0.48701  Biso   1.000  C
  C36      1.0000 0.58900  0.61487  0.44084  Biso   1.000  C
  C37      1.0000 0.66120  0.48737  0.51337  Biso   1.000  C
  C38      1.0000 0.60090  0.48510  0.53890  Biso   1.000  C
  C39      1.0000 0.60640  0.50650  0.58970  Biso   1.000  C
  C40      1.0000 0.67100  0.53095  0.61560  Biso   1.000  C
  C41      1.0000 0.73010  0.53531  0.59050  Biso   1.000  C
  C42      1.0000 0.72540  0.51353  0.53958  Biso   1.000  C
  C43      1.0000 0.63730  0.39517  0.45658  Biso   1.000  C
  C44      1.0000 0.69580  0.36097  0.46358  Biso   1.000  C
  C45      1.0000 0.68060  0.31226  0.47190  Biso   1.000  C
  C46      1.0000 0.60840  0.29722  0.47332  Biso   1.000  C
  C47      1.0000 0.54920  0.33074  0.46690  Biso   1.000  C
  C48      1.0000 0.56360  0.37945  0.45781  Biso   1.000  C
  C49      1.0000 0.68160  0.39707  0.08107  Biso   1.000  C
  C50      1.0000 0.67950  0.37092  0.12839  Biso   1.000  C
  C51      1.0000 0.67780  0.32038  0.12786  Biso   1.000  C
  C52      1.0000 0.68000  0.29532  0.08040  Biso   1.000  C
  C53      1.0000 0.68260  0.32098  0.03370  Biso   1.000  C
  C54      1.0000 0.68320  0.37115  0.03364  Biso   1.000  C
  C55      1.0000 0.69800  0.48494  0.01989  Biso   1.000  C
  C56      1.0000 0.63660  0.50373  0.98001  Biso   1.000  C
  C57      1.0000 0.64780  0.52087  0.93036  Biso   1.000  C
  C58      1.0000 0.71900  0.51938  0.92016  Biso   1.000  C
  C59      1.0000 0.77980  0.50077  0.95910  Biso   1.000  C
  C60      1.0000 0.76920  0.48384  0.00919  Biso   1.000  C
  C61      1.0000 0.74420  0.78734  0.34203  Biso   1.000  C
  C62      1.0000 0.68880  0.81214  0.35995  Biso   1.000  C
  C63      1.0000 0.70930  0.84613  0.40310  Biso   1.000  C
  C64      1.0000 0.78380  0.85530  0.42630  Biso   1.000  C
  C65      1.0000 0.83970  0.83110  0.40920  Biso   1.000  C
  C66      1.0000 0.82040  0.79702  0.36750  Biso   1.000  C
  C67      1.0000 0.84050  0.38378  0.34545  Biso   1.000  C
  C68      1.0000 0.79440  0.34711  0.31770  Biso   1.000  C
  C69      1.0000 0.79500  0.30149  0.34190  Biso   1.000  C
  C70      1.0000 0.83950  0.29240  0.39260  Biso   1.000  C
  C71      1.0000 0.88470  0.32860  0.42130  Biso   1.000  C
  C72      1.0000 0.88490  0.37416  0.39750  Biso   1.000  C
  C73      1.0000 0.82070  0.62065  0.15634  Biso   1.000  C
  C74      1.0000 0.80490  0.67074  0.15662  Biso   1.000  C
  C75      1.0000 0.76150  0.69235  0.10900  Biso   1.000  C
  C76      1.0000 0.73430  0.66520  0.06140  Biso   1.000  C
  C77      1.0000 0.74890  0.61628  0.06155  Biso   1.000  C
  C78      1.0000 0.79220  0.59361  0.10820  Biso   1.000  C
  C79      1.0000 0.88130  0.64476  0.48773  Biso   1.000  C
  C80      1.0000 0.87210  0.69473  0.47930  Biso   1.000  C
  C81      1.0000 0.88260  0.72590  0.52420  Biso   1.000  C
  C82      1.0000 0.90270  0.70790  0.57670  Biso   1.000  C
  C83      1.0000 0.91220  0.65860  0.58600  Biso   1.000  C
  C84      1.0000 0.90100  0.62708  0.54162  Biso   1.000  C
  C85      1.0000 0.94320  0.44304  0.30375  Biso   1.000  C
  C86      1.0000 0.99790  0.47440  0.33150  Biso   1.000  C
  C87      1.0000 0.07200  0.47280  0.32340  Biso   1.000  C
  C88      1.0000 0.08970  0.43980  0.28850  Biso   1.000  C
  C89      1.0000 0.03660  0.40940  0.25990  Biso   1.000  C
  C90      1.0000 0.96220  0.41042  0.26680  Biso   1.000  C
  C91      1.0000 0.97010  0.59152  0.42737  Biso   1.000  C
  C92      1.0000 0.00230  0.61228  0.38790  Biso   1.000  C
  C93      1.0000 0.07840  0.60460  0.38880  Biso   1.000  C
  C94      1.0000 0.12300  0.57595  0.42860  Biso   1.000  C
  C95      1.0000 0.09230  0.55430  0.46720  Biso   1.000  C
  C96      1.0000 0.01670  0.56187  0.46658  Biso   1.000  C
  P1       1.0000 0.50673  0.44974  0.23139  Biso   1.000  P
  P2       1.0000 0.51727  0.62573  0.12999  Biso   1.000  P
  P3       1.0000 0.50264  0.62222  0.33295  Biso   1.000  P
  P4       1.0000 0.65528  0.45891  0.44768  Biso   1.000  P
  P5       1.0000 0.68421  0.46277  0.08462  Biso   1.000  P
  P6       1.0000 0.72202  0.74564  0.28472  Biso   1.000  P
  P7       1.0000 0.84793  0.44218  0.31392  Biso   1.000  P
  P8       1.0000 0.87846  0.59154  0.21682  Biso   1.000  P
  P9       1.0000 0.87314  0.60383  0.43010  Biso   1.000  P
  O1       1.0000 0.55815  0.47958  0.27570  Biso   1.000  O
  O2       1.0000 0.51467  0.46138  0.17383  Biso   1.000  O
  O3       1.0000 0.52513  0.57130  0.13546  Biso   1.000  O
  O4       1.0000 0.56919  0.65754  0.17205  Biso   1.000  O
  O5       1.0000 0.52224  0.64368  0.28281  Biso   1.000  O
  O6       1.0000 0.50210  0.56703  0.33657  Biso   1.000  O
  O7       1.0000 0.58576  0.47896  0.40649  Biso   1.000  O
  O8       1.0000 0.73183  0.46321  0.43370  Biso   1.000  O
  O9       1.0000 0.60847  0.48202  0.09096  Biso   1.000  O
  O10      1.0000 0.75351  0.47623  0.12992  Biso   1.000  O
  O11      1.0000 0.64639  0.72192  0.28203  Biso   1.000  O
  O12      1.0000 0.79021  0.71282  0.28915  Biso   1.000  O
  O13      1.0000 0.84331  0.48280  0.35370  Biso   1.000  O
  O14      1.0000 0.79021  0.44207  0.25869  Biso   1.000  O
  O15      1.0000 0.85363  0.53954  0.21944  Biso   1.000  O
  O16      1.0000 0.87780  0.62335  0.26609  Biso   1.000  O
  O17      1.0000 0.83187  0.63026  0.37880  Biso   1.000  O
  O18      1.0000 0.83789  0.55691  0.44397  Biso   1.000  O
  O19      1.0000 0.68392  0.54124  0.34562  Biso   1.000  O
  O20      1.0000 0.67157  0.52365  0.21443  Biso   1.000  O
  O21      1.0000 0.69646  0.61509  0.27155  Biso   1.000  O
  Zn1      1.0000 0.58222  0.51940  0.34189  Biso   1.000  Zn
  Zn2      1.0000 0.58086  0.51149  0.15448  Biso   1.000  Zn
  Zn3      1.0000 0.60797  0.65800  0.25140  Biso   1.000  Zn
  Zn4      1.0000 0.77356  0.51237  0.39180  Biso   1.000  Zn
  Zn5      1.0000 0.76784  0.49573  0.20640  Biso   1.000  Zn
  Zn6      1.0000 0.79770  0.64205  0.30065  Biso   1.000  Zn
  C97      1.0000 0.70100  0.78320  0.22250  Biso   1.000  C
  C98      1.0000 0.72200  0.78340  0.22600  Biso   1.000  C
  C99      1.0000 0.76140  0.80060  0.20250  Biso   1.000  C
  C100     1.0000 0.78960  0.80460  0.22170  Biso   1.000  C
  C101     1.0000 0.74410  0.83150  0.15580  Biso   1.000  C
  C102     1.0000 0.78830  0.83460  0.17590  Biso   1.000  C
  C103     1.0000 0.67020  0.84240  0.13130  Biso   1.000  C
  C104     1.0000 0.72130  0.84270  0.13810  Biso   1.000  C
  C105     1.0000 0.61120  0.82630  0.15170  Biso   1.000  C
  C106     1.0000 0.65420  0.82390  0.14380  Biso   1.000  C
  C107     1.0000 0.62620  0.79610  0.19910  Biso   1.000  C
  C108     1.0000 0.65320  0.79340  0.18890  Biso   1.000  C
  C109     1.0000 0.97454  0.58912  0.20860  Biso   1.000  C
  C110     1.0000 0.99980  0.54786  0.18600  Biso   1.000  C
  C111     1.0000 0.02100  0.62955  0.22050  Biso   1.000  C
  C112     1.0000 0.09490  0.62830  0.21220  Biso   1.000  C
  C113     1.0000 0.12082  0.58680  0.19160  Biso   1.000  C
  C114     1.0000 0.07240  0.54701  0.17670  Biso   1.000  C
  H1       1.0000 0.37240  0.38910  0.22630  Biso   1.000  H
  H2       1.0000 0.24560  0.40580  0.22390  Biso   1.000  H
  H3       1.0000 0.20580  0.48520  0.23040  Biso   1.000  H
  H4       1.0000 0.29270  0.54800  0.23980  Biso   1.000  H
  H5       1.0000 0.41840  0.53280  0.24120  Biso   1.000  H
  H6       1.0000 0.37950  0.57080  0.12630  Biso   1.000  H
  H7       1.0000 0.25340  0.59070  0.12120  Biso   1.000  H
  H8       1.0000 0.21680  0.67170  0.12130  Biso   1.000  H
  H9       1.0000 0.30690  0.73280  0.12630  Biso   1.000  H
  H10      1.0000 0.43280  0.71330  0.13050  Biso   1.000  H
  H11      1.0000 0.40460  0.61710  0.40720  Biso   1.000  H
  H12      1.0000 0.28180  0.64150  0.40530  Biso   1.000  H
  H13      1.0000 0.21250  0.68480  0.33190  Biso   1.000  H
  H14      1.0000 0.26210  0.70020  0.25820  Biso   1.000  H
  H15      1.0000 0.38450  0.67390  0.25730  Biso   1.000  H
  H16      1.0000 0.55530  0.39130  0.32720  Biso   1.000  H
  H17      1.0000 0.58150  0.30980  0.34510  Biso   1.000  H
  H18      1.0000 0.57020  0.25540  0.27380  Biso   1.000  H
  H19      1.0000 0.53400  0.28210  0.18430  Biso   1.000  H
  H20      1.0000 0.50730  0.36390  0.16660  Biso   1.000  H
  H21      1.0000 0.50580  0.57910  0.02560  Biso   1.000  H
  H22      1.0000 0.51190  0.60460  0.93860  Biso   1.000  H
  H23      1.0000 0.53190  0.68590  0.92280  Biso   1.000  H
  H24      1.0000 0.55330  0.74130  0.99460  Biso   1.000  H
  H25      1.0000 0.55160  0.71540  0.08230  Biso   1.000  H
  H26      1.0000 0.58760  0.71030  0.36520  Biso   1.000  H
  H27      1.0000 0.67700  0.73600  0.44210  Biso   1.000  H
  H28      1.0000 0.71230  0.68620  0.51830  Biso   1.000  H
  H29      1.0000 0.65580  0.61050  0.51780  Biso   1.000  H
  H30      1.0000 0.56720  0.58400  0.44080  Biso   1.000  H
  H31      1.0000 0.55640  0.46870  0.52160  Biso   1.000  H
  H32      1.0000 0.56560  0.50470  0.60630  Biso   1.000  H
  H33      1.0000 0.67430  0.54470  0.64990  Biso   1.000  H
  H34      1.0000 0.77370  0.55290  0.60740  Biso   1.000  H
  H35      1.0000 0.76630  0.51640  0.52290  Biso   1.000  H
  H36      1.0000 0.74520  0.37040  0.46300  Biso   1.000  H
  H37      1.0000 0.72040  0.28970  0.47740  Biso   1.000  H
  H38      1.0000 0.59930  0.26450  0.47860  Biso   1.000  H
  H39      1.0000 0.50040  0.32040  0.46870  Biso   1.000  H
  H40      1.0000 0.52400  0.40290  0.45290  Biso   1.000  H
  H41      1.0000 0.67880  0.38780  0.16060  Biso   1.000  H
  H42      1.0000 0.67470  0.30350  0.15940  Biso   1.000  H
  H43      1.0000 0.68050  0.26150  0.08060  Biso   1.000  H
  H44      1.0000 0.68440  0.30410  0.00190  Biso   1.000  H
  H45      1.0000 0.68480  0.38810  0.00200  Biso   1.000  H
  H46      1.0000 0.58830  0.50510  0.98680  Biso   1.000  H
  H47      1.0000 0.60650  0.53330  0.90360  Biso   1.000  H
  H48      1.0000 0.72550  0.53020  0.88620  Biso   1.000  H
  H49      1.0000 0.82850  0.49960  0.95230  Biso   1.000  H
  H50      1.0000 0.81070  0.47180  0.03580  Biso   1.000  H
  H51      1.0000 0.63740  0.80650  0.34300  Biso   1.000  H
  H52      1.0000 0.67120  0.86240  0.41530  Biso   1.000  H
  H53      1.0000 0.79690  0.87810  0.45490  Biso   1.000  H
  H54      1.0000 0.89100  0.83740  0.42600  Biso   1.000  H
  H55      1.0000 0.85880  0.78020  0.35620  Biso   1.000  H
  H56      1.0000 0.76260  0.35300  0.28280  Biso   1.000  H
  H57      1.0000 0.76510  0.27660  0.32280  Biso   1.000  H
  H58      1.0000 0.84020  0.26180  0.40820  Biso   1.000  H
  H59      1.0000 0.91590  0.32270  0.45680  Biso   1.000  H
  H60      1.0000 0.91620  0.39890  0.41690  Biso   1.000  H
  H61      1.0000 0.82370  0.68950  0.18790  Biso   1.000  H
  H62      1.0000 0.75070  0.72560  0.10940  Biso   1.000  H
  H63      1.0000 0.70650  0.68030  0.02940  Biso   1.000  H
  H64      1.0000 0.72870  0.59820  0.02990  Biso   1.000  H
  H65      1.0000 0.80170  0.56030  0.10800  Biso   1.000  H
  H66      1.0000 0.85930  0.70760  0.44380  Biso   1.000  H
  H67      1.0000 0.87610  0.75920  0.51840  Biso   1.000  H
  H68      1.0000 0.91010  0.72920  0.60640  Biso   1.000  H
  H69      1.0000 0.92620  0.64640  0.62140  Biso   1.000  H
  H70      1.0000 0.90710  0.59340  0.54770  Biso   1.000  H
  H71      1.0000 0.98620  0.49680  0.35650  Biso   1.000  H
  H72      1.0000 0.10950  0.49510  0.34280  Biso   1.000  H
  H73      1.0000 0.13980  0.43840  0.28420  Biso   1.000  H
  H74      1.0000 0.04850  0.38750  0.23520  Biso   1.000  H
  H75      1.0000 0.92540  0.38920  0.24660  Biso   1.000  H
  H76      1.0000 0.97310  0.63090  0.36050  Biso   1.000  H
  H77      1.0000 0.09900  0.61880  0.36210  Biso   1.000  H
  H78      1.0000 0.17390  0.57090  0.42860  Biso   1.000  H
  H79      1.0000 0.12250  0.53410  0.49370  Biso   1.000  H
  H80      1.0000 0.99660  0.54660  0.49280  Biso   1.000  H
  H81      1.0000 0.81180  0.79240  0.21930  Biso   1.000  H
  H82      1.0000 0.83490  0.79930  0.24830  Biso   1.000  H
  H83      1.0000 0.78270  0.84370  0.14120  Biso   1.000  H
  H84      1.0000 0.83290  0.84860  0.17150  Biso   1.000  H
  H85      1.0000 0.65900  0.86070  0.09900  Biso   1.000  H
  H86      1.0000 0.72130  0.86190  0.10760  Biso   1.000  H
  H87      1.0000 0.56140  0.83580  0.13520  Biso   1.000  H
  H88      1.0000 0.60890  0.83100  0.11780  Biso   1.000  H
  H89      1.0000 0.58660  0.78550  0.21450  Biso   1.000  H
  H90      1.0000 0.60800  0.77970  0.19330  Biso   1.000  H
  H91      1.0000 0.96720  0.52010  0.17630  Biso   1.000  H
  H92      1.0000 0.00290  0.65800  0.23470  Biso   1.000  H
  H93      1.0000 0.12690  0.65560  0.22080  Biso   1.000  H
  H94      1.0000 0.17120  0.58620  0.18660  Biso   1.000  H
  H95      1.0000 0.08790  0.51850  0.15930  Biso   1.000  H
  H96      1.0000 0.68970  0.59570  0.24650  Biso   1.000  H
  H97      1.0000 0.68760  0.56630  0.32960  Biso   1.000  H
  H98      1.0000 0.65670  0.51210  0.23970  Biso   1.000  H
  C115     1.0000 0.59180  0.95875  0.26682  Biso   1.000  C
  C116     1.0000 0.64380  0.92116  0.27170  Biso   1.000  C
  C117     1.0000 0.72000  0.93120  0.27295  Biso   1.000  C
  C118     1.0000 0.74330  0.97840  0.26900  Biso   1.000  C
  C119     1.0000 0.69170  0.01621  0.26340  Biso   1.000  C
  C120     1.0000 0.61690  0.00699  0.26247  Biso   1.000  C
  C121     1.0000 0.58050  0.13994  0.37071  Biso   1.000  C
  C122     1.0000 0.63510  0.10374  0.37397  Biso   1.000  C
  C123     1.0000 0.71070  0.11553  0.37690  Biso   1.000  C
  C124     1.0000 0.73230  0.16375  0.37692  Biso   1.000  C
  C125     1.0000 0.67870  0.20032  0.37385  Biso   1.000  C
  C126     1.0000 0.60380  0.18819  0.37115  Biso   1.000  C
  C127     1.0000 0.59220  0.14291  0.16720  Biso   1.000  C
  C128     1.0000 0.62380  0.13370  0.12337  Biso   1.000  C
  C129     1.0000 0.69740  0.14880  0.12430  Biso   1.000  C
  C130     1.0000 0.73880  0.17360  0.16810  Biso   1.000  C
  C131     1.0000 0.70910  0.18308  0.21210  Biso   1.000  C
  C132     1.0000 0.63560  0.16757  0.21240  Biso   1.000  C
  C133     1.0000 0.47130  0.88570  0.25545  Biso   1.000  C
  C134     1.0000 0.44870  0.86962  0.20155  Biso   1.000  C
  C135     1.0000 0.43280  0.82047  0.19120  Biso   1.000  C
  C136     1.0000 0.43970  0.78802  0.23340  Biso   1.000  C
  C137     1.0000 0.46210  0.80392  0.28680  Biso   1.000  C
  C138     1.0000 0.47780  0.85305  0.29755  Biso   1.000  C
  C139     1.0000 0.47180  0.14436  0.43664  Biso   1.000  C
  C140     1.0000 0.48400  0.11161  0.48012  Biso   1.000  C
  C141     1.0000 0.48160  0.12695  0.53273  Biso   1.000  C
  C142     1.0000 0.46860  0.17530  0.54159  Biso   1.000  C
  C143     1.0000 0.45650  0.20857  0.49904  Biso   1.000  C
  C144     1.0000 0.45770  0.19320  0.44676  Biso   1.000  C
  C145     1.0000 0.43180  0.14450  0.10518  Biso   1.000  C
  C146     1.0000 0.39870  0.19039  0.10414  Biso   1.000  C
  C147     1.0000 0.34500  0.20558  0.05797  Biso   1.000  C
  C148     1.0000 0.32420  0.17571  0.01275  Biso   1.000  C
  C149     1.0000 0.35750  0.13032  0.01299  Biso   1.000  C
  C150     1.0000 0.41100  0.11487  0.05916  Biso   1.000  C
  C151     1.0000 0.33880  0.98737  0.98663  Biso   1.000  C
  C152     1.0000 0.39910  0.98510  0.96110  Biso   1.000  C
  C153     1.0000 0.39360  0.00650  0.91030  Biso   1.000  C
  C154     1.0000 0.32900  0.03095  0.88440  Biso   1.000  C
  C155     1.0000 0.26990  0.03531  0.90950  Biso   1.000  C
  C156     1.0000 0.27460  0.01353  0.96042  Biso   1.000  C
  C157     1.0000 0.36270  0.89517  0.04342  Biso   1.000  C
  C158     1.0000 0.30420  0.86097  0.03642  Biso   1.000  C
  C159     1.0000 0.31940  0.81226  0.02810  Biso   1.000  C
  C160     1.0000 0.39160  0.79722  0.02668  Biso   1.000  C
  C161     1.0000 0.45080  0.83074  0.03310  Biso   1.000  C
  C162     1.0000 0.43640  0.87945  0.04219  Biso   1.000  C
  C163     1.0000 0.31840  0.89707  0.41893  Biso   1.000  C
  C164     1.0000 0.32050  0.87092  0.37161  Biso   1.000  C
  C165     1.0000 0.32220  0.82038  0.37214  Biso   1.000  C
  C166     1.0000 0.32000  0.79532  0.41960  Biso   1.000  C
  C167     1.0000 0.31740  0.82098  0.46630  Biso   1.000  C
  C168     1.0000 0.31680  0.87115  0.46636  Biso   1.000  C
  C169     1.0000 0.30200  0.98494  0.48011  Biso   1.000  C
  C170     1.0000 0.36340  0.00373  0.51999  Biso   1.000  C
  C171     1.0000 0.35220  0.02087  0.56964  Biso   1.000  C
  C172     1.0000 0.28100  0.01938  0.57984  Biso   1.000  C
  C173     1.0000 0.22020  0.00077  0.54090  Biso   1.000  C
  C174     1.0000 0.23080  0.98384  0.49081  Biso   1.000  C
  C175     1.0000 0.25580  0.28734  0.15797  Biso   1.000  C
  C176     1.0000 0.31120  0.31214  0.14005  Biso   1.000  C
  C177     1.0000 0.29070  0.34613  0.09690  Biso   1.000  C
  C178     1.0000 0.21620  0.35530  0.07370  Biso   1.000  C
  C179     1.0000 0.16030  0.33110  0.09080  Biso   1.000  C
  C180     1.0000 0.17960  0.29702  0.13250  Biso   1.000  C
  C181     1.0000 0.15950  0.88378  0.15455  Biso   1.000  C
  C182     1.0000 0.20560  0.84711  0.18230  Biso   1.000  C
  C183     1.0000 0.20500  0.80149  0.15810  Biso   1.000  C
  C184     1.0000 0.16050  0.79240  0.10740  Biso   1.000  C
  C185     1.0000 0.11530  0.82860  0.07870  Biso   1.000  C
  C186     1.0000 0.11510  0.87416  0.10250  Biso   1.000  C
  C187     1.0000 0.17930  0.12065  0.34366  Biso   1.000  C
  C188     1.0000 0.19510  0.17074  0.34338  Biso   1.000  C
  C189     1.0000 0.23850  0.19235  0.39100  Biso   1.000  C
  C190     1.0000 0.26570  0.16520  0.43860  Biso   1.000  C
  C191     1.0000 0.25110  0.11628  0.43845  Biso   1.000  C
  C192     1.0000 0.20780  0.09361  0.39180  Biso   1.000  C
  C193     1.0000 0.11870  0.14476  0.01227  Biso   1.000  C
  C194     1.0000 0.12790  0.19473  0.02070  Biso   1.000  C
  C195     1.0000 0.11740  0.22590  0.97580  Biso   1.000  C
  C196     1.0000 0.09730  0.20790  0.92330  Biso   1.000  C
  C197     1.0000 0.08780  0.15860  0.91400  Biso   1.000  C
  C198     1.0000 0.09900  0.12708  0.95838  Biso   1.000  C
  C199     1.0000 0.05680  0.94304  0.19625  Biso   1.000  C
  C200     1.0000 0.00210  0.97440  0.16850  Biso   1.000  C
  C201     1.0000 0.92800  0.97280  0.17660  Biso   1.000  C
  C202     1.0000 0.91030  0.93980  0.21150  Biso   1.000  C
  C203     1.0000 0.96340  0.90940  0.24010  Biso   1.000  C
  C204     1.0000 0.03780  0.91042  0.23320  Biso   1.000  C
  C205     1.0000 0.02990  0.09152  0.07263  Biso   1.000  C
  C206     1.0000 0.99770  0.11228  0.11210  Biso   1.000  C
  C207     1.0000 0.92160  0.10460  0.11120  Biso   1.000  C
  C208     1.0000 0.87700  0.07595  0.07140  Biso   1.000  C
  C209     1.0000 0.90770  0.05430  0.03280  Biso   1.000  C
  C210     1.0000 0.98330  0.06187  0.03342  Biso   1.000  C
  P10      1.0000 0.49327  0.94974  0.26861  Biso   1.000  P
  P11      1.0000 0.48273  0.12573  0.37001  Biso   1.000  P
  P12      1.0000 0.49736  0.12222  0.16705  Biso   1.000  P
  P13      1.0000 0.34472  0.95891  0.05232  Biso   1.000  P
  P14      1.0000 0.31579  0.96277  0.41538  Biso   1.000  P
  P15      1.0000 0.27798  0.24564  0.21528  Biso   1.000  P
  P16      1.0000 0.15207  0.94218  0.18608  Biso   1.000  P
  P17      1.0000 0.12154  0.09154  0.28318  Biso   1.000  P
  P18      1.0000 0.12686  0.10383  0.06990  Biso   1.000  P
  O22      1.0000 0.44185  0.97958  0.22430  Biso   1.000  O
  O23      1.0000 0.48533  0.96138  0.32617  Biso   1.000  O
  O24      1.0000 0.47487  0.07130  0.36454  Biso   1.000  O
  O25      1.0000 0.43081  0.15754  0.32795  Biso   1.000  O
  O26      1.0000 0.47776  0.14368  0.21719  Biso   1.000  O
  O27      1.0000 0.49790  0.06703  0.16343  Biso   1.000  O
  O28      1.0000 0.41424  0.97896  0.09351  Biso   1.000  O
  O29      1.0000 0.26817  0.96321  0.06630  Biso   1.000  O
  O30      1.0000 0.39153  0.98202  0.40904  Biso   1.000  O
  O31      1.0000 0.24649  0.97623  0.37008  Biso   1.000  O
  O32      1.0000 0.35361  0.22192  0.21797  Biso   1.000  O
  O33      1.0000 0.20979  0.21282  0.21085  Biso   1.000  O
  O34      1.0000 0.15669  0.98280  0.14630  Biso   1.000  O
  O35      1.0000 0.20979  0.94207  0.24131  Biso   1.000  O
  O36      1.0000 0.14637  0.03954  0.28056  Biso   1.000  O
  O37      1.0000 0.12220  0.12335  0.23391  Biso   1.000  O
  O38      1.0000 0.16813  0.13026  0.12120  Biso   1.000  O
  O39      1.0000 0.16211  0.05691  0.05603  Biso   1.000  O
  O40      1.0000 0.31608  0.04124  0.15438  Biso   1.000  O
  O41      1.0000 0.32843  0.02365  0.28557  Biso   1.000  O
  O42      1.0000 0.30354  0.11509  0.22845  Biso   1.000  O
  Zn7      1.0000 0.41778  0.01940  0.15811  Biso   1.000  Zn
  Zn8      1.0000 0.41914  0.01149  0.34552  Biso   1.000  Zn
  Zn9      1.0000 0.39203  0.15800  0.24860  Biso   1.000  Zn
  Zn10     1.0000 0.22644  0.01237  0.10820  Biso   1.000  Zn
  Zn11     1.0000 0.23216  0.99573  0.29360  Biso   1.000  Zn
  Zn12     1.0000 0.20230  0.14205  0.19935  Biso   1.000  Zn
  C211     1.0000 0.29900  0.28320  0.27750  Biso   1.000  C
  C212     1.0000 0.27800  0.28340  0.27400  Biso   1.000  C
  C213     1.0000 0.23860  0.30060  0.29750  Biso   1.000  C
  C214     1.0000 0.21040  0.30460  0.27830  Biso   1.000  C
  C215     1.0000 0.25590  0.33150  0.34420  Biso   1.000  C
  C216     1.0000 0.21170  0.33460  0.32410  Biso   1.000  C
  C217     1.0000 0.32980  0.34240  0.36870  Biso   1.000  C
  C218     1.0000 0.27870  0.34270  0.36190  Biso   1.000  C
  C219     1.0000 0.38880  0.32630  0.34830  Biso   1.000  C
  C220     1.0000 0.34580  0.32390  0.35620  Biso   1.000  C
  C221     1.0000 0.37380  0.29610  0.30090  Biso   1.000  C
  C222     1.0000 0.34680  0.29340  0.31110  Biso   1.000  C
  C223     1.0000 0.02546  0.08912  0.29140  Biso   1.000  C
  C224     1.0000 0.00020  0.04786  0.31400  Biso   1.000  C
  C225     1.0000 0.97900  0.12955  0.27950  Biso   1.000  C
  C226     1.0000 0.90510  0.12830  0.28780  Biso   1.000  C
  C227     1.0000 0.87918  0.08680  0.30840  Biso   1.000  C
  C228     1.0000 0.92760  0.04701  0.32330  Biso   1.000  C
  H99      1.0000 0.62760  0.88910  0.27370  Biso   1.000  H
  H100     1.0000 0.75440  0.90580  0.27610  Biso   1.000  H
  H101     1.0000 0.79420  0.98520  0.26960  Biso   1.000  H
  H102     1.0000 0.70730  0.04800  0.26020  Biso   1.000  H
  H103     1.0000 0.58160  0.03280  0.25880  Biso   1.000  H
  H104     1.0000 0.62050  0.07080  0.37370  Biso   1.000  H
  H105     1.0000 0.74660  0.09070  0.37880  Biso   1.000  H
  H106     1.0000 0.78320  0.17170  0.37870  Biso   1.000  H
  H107     1.0000 0.69310  0.23280  0.37370  Biso   1.000  H
  H108     1.0000 0.56720  0.21330  0.36950  Biso   1.000  H
  H109     1.0000 0.59540  0.11710  0.09280  Biso   1.000  H
  H110     1.0000 0.71820  0.14150  0.09470  Biso   1.000  H
  H111     1.0000 0.78750  0.18480  0.16810  Biso   1.000  H
  H112     1.0000 0.73790  0.20020  0.24180  Biso   1.000  H
  H113     1.0000 0.61550  0.17390  0.24270  Biso   1.000  H
  H114     1.0000 0.44470  0.89130  0.17280  Biso   1.000  H
  H115     1.0000 0.41850  0.80980  0.15490  Biso   1.000  H
  H116     1.0000 0.42980  0.75540  0.22620  Biso   1.000  H
  H117     1.0000 0.46600  0.78210  0.31570  Biso   1.000  H
  H118     1.0000 0.49270  0.86390  0.33340  Biso   1.000  H
  H119     1.0000 0.49420  0.07910  0.47440  Biso   1.000  H
  H120     1.0000 0.48810  0.10460  0.56140  Biso   1.000  H
  H121     1.0000 0.46810  0.18590  0.57720  Biso   1.000  H
  H122     1.0000 0.44670  0.24130  0.50540  Biso   1.000  H
  H123     1.0000 0.44840  0.21540  0.41770  Biso   1.000  H
  H124     1.0000 0.41240  0.21030  0.13480  Biso   1.000  H
  H125     1.0000 0.32300  0.23600  0.05790  Biso   1.000  H
  H126     1.0000 0.28770  0.18620  0.98170  Biso   1.000  H
  H127     1.0000 0.34420  0.11050  0.98220  Biso   1.000  H
  H128     1.0000 0.43280  0.08400  0.05920  Biso   1.000  H
  H129     1.0000 0.44360  0.96870  0.97840  Biso   1.000  H
  H130     1.0000 0.43440  0.00470  0.89370  Biso   1.000  H
  H131     1.0000 0.32570  0.04470  0.85010  Biso   1.000  H
  H132     1.0000 0.22630  0.05290  0.89260  Biso   1.000  H
  H133     1.0000 0.23370  0.01640  0.97710  Biso   1.000  H
  H134     1.0000 0.25480  0.87040  0.03700  Biso   1.000  H
  H135     1.0000 0.27960  0.78970  0.02260  Biso   1.000  H
  H136     1.0000 0.40070  0.76450  0.02140  Biso   1.000  H
  H137     1.0000 0.49960  0.82040  0.03130  Biso   1.000  H
  H138     1.0000 0.47600  0.90290  0.04710  Biso   1.000  H
  H139     1.0000 0.32120  0.88780  0.33940  Biso   1.000  H
  H140     1.0000 0.32530  0.80350  0.34060  Biso   1.000  H
  H141     1.0000 0.31950  0.76150  0.41940  Biso   1.000  H
  H142     1.0000 0.31560  0.80410  0.49810  Biso   1.000  H
  H143     1.0000 0.31520  0.88810  0.49800  Biso   1.000  H
  H144     1.0000 0.41170  0.00510  0.51320  Biso   1.000  H
  H145     1.0000 0.39350  0.03330  0.59640  Biso   1.000  H
  H146     1.0000 0.27450  0.03020  0.61380  Biso   1.000  H
  H147     1.0000 0.17150  0.99960  0.54770  Biso   1.000  H
  H148     1.0000 0.18930  0.97180  0.46420  Biso   1.000  H
  H149     1.0000 0.36260  0.30650  0.15700  Biso   1.000  H
  H150     1.0000 0.32880  0.36240  0.08470  Biso   1.000  H
  H151     1.0000 0.20310  0.37810  0.04510  Biso   1.000  H
  H152     1.0000 0.10900  0.33740  0.07400  Biso   1.000  H
  H153     1.0000 0.14120  0.28020  0.14380  Biso   1.000  H
  H154     1.0000 0.23740  0.85300  0.21720  Biso   1.000  H
  H155     1.0000 0.23490  0.77660  0.17720  Biso   1.000  H
  H156     1.0000 0.15980  0.76180  0.09180  Biso   1.000  H
  H157     1.0000 0.08410  0.82270  0.04320  Biso   1.000  H
  H158     1.0000 0.08380  0.89890  0.08310  Biso   1.000  H
  H159     1.0000 0.17630  0.18950  0.31210  Biso   1.000  H
  H160     1.0000 0.24930  0.22560  0.39060  Biso   1.000  H
  H161     1.0000 0.29350  0.18030  0.47060  Biso   1.000  H
  H162     1.0000 0.27130  0.09820  0.47010  Biso   1.000  H
  H163     1.0000 0.19830  0.06030  0.39200  Biso   1.000  H
  H164     1.0000 0.14070  0.20760  0.05620  Biso   1.000  H
  H165     1.0000 0.12390  0.25920  0.98160  Biso   1.000  H
  H166     1.0000 0.08990  0.22920  0.89360  Biso   1.000  H
  H167     1.0000 0.07380  0.14640  0.87860  Biso   1.000  H
  H168     1.0000 0.09290  0.09340  0.95230  Biso   1.000  H
  H169     1.0000 0.01380  0.99680  0.14350  Biso   1.000  H
  H170     1.0000 0.89050  0.99510  0.15720  Biso   1.000  H
  H171     1.0000 0.86020  0.93840  0.21580  Biso   1.000  H
  H172     1.0000 0.95150  0.88750  0.26480  Biso   1.000  H
  H173     1.0000 0.07460  0.88920  0.25340  Biso   1.000  H
  H174     1.0000 0.02690  0.13090  0.13950  Biso   1.000  H
  H175     1.0000 0.90100  0.11880  0.13790  Biso   1.000  H
  H176     1.0000 0.82610  0.07090  0.07140  Biso   1.000  H
  H177     1.0000 0.87750  0.03410  0.00630  Biso   1.000  H
  H178     1.0000 0.00340  0.04660  0.00720  Biso   1.000  H
  H179     1.0000 0.18820  0.29240  0.28070  Biso   1.000  H
  H180     1.0000 0.16510  0.29930  0.25170  Biso   1.000  H
  H181     1.0000 0.21730  0.34370  0.35880  Biso   1.000  H
  H182     1.0000 0.16710  0.34860  0.32850  Biso   1.000  H
  H183     1.0000 0.34100  0.36070  0.40100  Biso   1.000  H
  H184     1.0000 0.27870  0.36190  0.39240  Biso   1.000  H
  H185     1.0000 0.43860  0.33580  0.36480  Biso   1.000  H
  H186     1.0000 0.39110  0.33100  0.38220  Biso   1.000  H
  H187     1.0000 0.41340  0.28550  0.28550  Biso   1.000  H
  H188     1.0000 0.39200  0.27970  0.30670  Biso   1.000  H
  H189     1.0000 0.03280  0.02010  0.32370  Biso   1.000  H
  H190     1.0000 0.99710  0.15800  0.26530  Biso   1.000  H
  H191     1.0000 0.87310  0.15560  0.27920  Biso   1.000  H
  H192     1.0000 0.82880  0.08620  0.31340  Biso   1.000  H
  H193     1.0000 0.91210  0.01850  0.34070  Biso   1.000  H
  H194     1.0000 0.31030  0.09570  0.25350  Biso   1.000  H
  H195     1.0000 0.31240  0.06630  0.17040  Biso   1.000  H
  H196     1.0000 0.34330  0.01210  0.26030  Biso   1.000  H
  C229     1.0000 0.59180  0.54125  0.76682  Biso   1.000  C
  C230     1.0000 0.64380  0.57884  0.77170  Biso   1.000  C
  C231     1.0000 0.72000  0.56880  0.77295  Biso   1.000  C
  C232     1.0000 0.74330  0.52160  0.76900  Biso   1.000  C
  C233     1.0000 0.69170  0.48379  0.76340  Biso   1.000  C
  C234     1.0000 0.61690  0.49301  0.76247  Biso   1.000  C
  C235     1.0000 0.58050  0.36006  0.87071  Biso   1.000  C
  C236     1.0000 0.63510  0.39626  0.87397  Biso   1.000  C
  C237     1.0000 0.71070  0.38447  0.87690  Biso   1.000  C
  C238     1.0000 0.73230  0.33625  0.87692  Biso   1.000  C
  C239     1.0000 0.67870  0.29968  0.87385  Biso   1.000  C
  C240     1.0000 0.60380  0.31181  0.87115  Biso   1.000  C
  C241     1.0000 0.59220  0.35709  0.66720  Biso   1.000  C
  C242     1.0000 0.62380  0.36630  0.62337  Biso   1.000  C
  C243     1.0000 0.69740  0.35120  0.62430  Biso   1.000  C
  C244     1.0000 0.73880  0.32640  0.66810  Biso   1.000  C
  C245     1.0000 0.70910  0.31692  0.71210  Biso   1.000  C
  C246     1.0000 0.63560  0.33243  0.71240  Biso   1.000  C
  C247     1.0000 0.47130  0.61430  0.75545  Biso   1.000  C
  C248     1.0000 0.44870  0.63038  0.70155  Biso   1.000  C
  C249     1.0000 0.43280  0.67953  0.69120  Biso   1.000  C
  C250     1.0000 0.43970  0.71198  0.73340  Biso   1.000  C
  C251     1.0000 0.46210  0.69608  0.78680  Biso   1.000  C
  C252     1.0000 0.47780  0.64695  0.79755  Biso   1.000  C
  C253     1.0000 0.47180  0.35564  0.93664  Biso   1.000  C
  C254     1.0000 0.48400  0.38839  0.98012  Biso   1.000  C
  C255     1.0000 0.48160  0.37305  0.03273  Biso   1.000  C
  C256     1.0000 0.46860  0.32470  0.04159  Biso   1.000  C
  C257     1.0000 0.45650  0.29143  0.99904  Biso   1.000  C
  C258     1.0000 0.45770  0.30680  0.94676  Biso   1.000  C
  C259     1.0000 0.43180  0.35550  0.60518  Biso   1.000  C
  C260     1.0000 0.39870  0.30961  0.60414  Biso   1.000  C
  C261     1.0000 0.34500  0.29442  0.55797  Biso   1.000  C
  C262     1.0000 0.32420  0.32429  0.51275  Biso   1.000  C
  C263     1.0000 0.35750  0.36968  0.51299  Biso   1.000  C
  C264     1.0000 0.41100  0.38513  0.55916  Biso   1.000  C
  C265     1.0000 0.33880  0.51263  0.48663  Biso   1.000  C
  C266     1.0000 0.39910  0.51490  0.46110  Biso   1.000  C
  C267     1.0000 0.39360  0.49350  0.41030  Biso   1.000  C
  C268     1.0000 0.32900  0.46905  0.38440  Biso   1.000  C
  C269     1.0000 0.26990  0.46469  0.40950  Biso   1.000  C
  C270     1.0000 0.27460  0.48647  0.46042  Biso   1.000  C
  C271     1.0000 0.36270  0.60483  0.54342  Biso   1.000  C
  C272     1.0000 0.30420  0.63903  0.53642  Biso   1.000  C
  C273     1.0000 0.31940  0.68774  0.52810  Biso   1.000  C
  C274     1.0000 0.39160  0.70278  0.52668  Biso   1.000  C
  C275     1.0000 0.45080  0.66926  0.53310  Biso   1.000  C
  C276     1.0000 0.43640  0.62055  0.54219  Biso   1.000  C
  C277     1.0000 0.31840  0.60293  0.91893  Biso   1.000  C
  C278     1.0000 0.32050  0.62908  0.87161  Biso   1.000  C
  C279     1.0000 0.32220  0.67962  0.87214  Biso   1.000  C
  C280     1.0000 0.32000  0.70468  0.91960  Biso   1.000  C
  C281     1.0000 0.31740  0.67902  0.96630  Biso   1.000  C
  C282     1.0000 0.31680  0.62885  0.96636  Biso   1.000  C
  C283     1.0000 0.30200  0.51506  0.98011  Biso   1.000  C
  C284     1.0000 0.36340  0.49627  0.01999  Biso   1.000  C
  C285     1.0000 0.35220  0.47913  0.06964  Biso   1.000  C
  C286     1.0000 0.28100  0.48062  0.07984  Biso   1.000  C
  C287     1.0000 0.22020  0.49923  0.04090  Biso   1.000  C
  C288     1.0000 0.23080  0.51616  0.99081  Biso   1.000  C
  C289     1.0000 0.25580  0.21266  0.65797  Biso   1.000  C
  C290     1.0000 0.31120  0.18786  0.64005  Biso   1.000  C
  C291     1.0000 0.29070  0.15387  0.59690  Biso   1.000  C
  C292     1.0000 0.21620  0.14470  0.57370  Biso   1.000  C
  C293     1.0000 0.16030  0.16890  0.59080  Biso   1.000  C
  C294     1.0000 0.17960  0.20298  0.63250  Biso   1.000  C
  C295     1.0000 0.15950  0.61622  0.65455  Biso   1.000  C
  C296     1.0000 0.20560  0.65289  0.68230  Biso   1.000  C
  C297     1.0000 0.20500  0.69851  0.65810  Biso   1.000  C
  C298     1.0000 0.16050  0.70760  0.60740  Biso   1.000  C
  C299     1.0000 0.11530  0.67140  0.57870  Biso   1.000  C
  C300     1.0000 0.11510  0.62584  0.60250  Biso   1.000  C
  C301     1.0000 0.17930  0.37935  0.84366  Biso   1.000  C
  C302     1.0000 0.19510  0.32926  0.84338  Biso   1.000  C
  C303     1.0000 0.23850  0.30765  0.89100  Biso   1.000  C
  C304     1.0000 0.26570  0.33480  0.93860  Biso   1.000  C
  C305     1.0000 0.25110  0.38372  0.93845  Biso   1.000  C
  C306     1.0000 0.20780  0.40639  0.89180  Biso   1.000  C
  C307     1.0000 0.11870  0.35524  0.51227  Biso   1.000  C
  C308     1.0000 0.12790  0.30527  0.52070  Biso   1.000  C
  C309     1.0000 0.11740  0.27410  0.47580  Biso   1.000  C
  C310     1.0000 0.09730  0.29210  0.42330  Biso   1.000  C
  C311     1.0000 0.08780  0.34140  0.41400  Biso   1.000  C
  C312     1.0000 0.09900  0.37292  0.45838  Biso   1.000  C
  C313     1.0000 0.05680  0.55696  0.69625  Biso   1.000  C
  C314     1.0000 0.00210  0.52560  0.66850  Biso   1.000  C
  C315     1.0000 0.92800  0.52720  0.67660  Biso   1.000  C
  C316     1.0000 0.91030  0.56020  0.71150  Biso   1.000  C
  C317     1.0000 0.96340  0.59060  0.74010  Biso   1.000  C
  C318     1.0000 0.03780  0.58958  0.73320  Biso   1.000  C
  C319     1.0000 0.02990  0.40848  0.57263  Biso   1.000  C
  C320     1.0000 0.99770  0.38772  0.61210  Biso   1.000  C
  C321     1.0000 0.92160  0.39540  0.61120  Biso   1.000  C
  C322     1.0000 0.87700  0.42405  0.57140  Biso   1.000  C
  C323     1.0000 0.90770  0.44570  0.53280  Biso   1.000  C
  C324     1.0000 0.98330  0.43813  0.53342  Biso   1.000  C
  P19      1.0000 0.49327  0.55026  0.76861  Biso   1.000  P
  P20      1.0000 0.48273  0.37427  0.87001  Biso   1.000  P
  P21      1.0000 0.49736  0.37778  0.66705  Biso   1.000  P
  P22      1.0000 0.34472  0.54109  0.55232  Biso   1.000  P
  P23      1.0000 0.31579  0.53723  0.91538  Biso   1.000  P
  P24      1.0000 0.27798  0.25436  0.71528  Biso   1.000  P
  P25      1.0000 0.15207  0.55782  0.68608  Biso   1.000  P
  P26      1.0000 0.12154  0.40846  0.78318  Biso   1.000  P
  P27      1.0000 0.12686  0.39617  0.56990  Biso   1.000  P
  O43      1.0000 0.44185  0.52042  0.72430  Biso   1.000  O
  O44      1.0000 0.48533  0.53862  0.82617  Biso   1.000  O
  O45      1.0000 0.47487  0.42870  0.86454  Biso   1.000  O
  O46      1.0000 0.43081  0.34246  0.82795  Biso   1.000  O
  O47      1.0000 0.47776  0.35632  0.71719  Biso   1.000  O
  O48      1.0000 0.49790  0.43297  0.66343  Biso   1.000  O
  O49      1.0000 0.41424  0.52104  0.59351  Biso   1.000  O
  O50      1.0000 0.26817  0.53679  0.56630  Biso   1.000  O
  O51      1.0000 0.39153  0.51798  0.90904  Biso   1.000  O
  O52      1.0000 0.24649  0.52377  0.87008  Biso   1.000  O
  O53      1.0000 0.35361  0.27808  0.71797  Biso   1.000  O
  O54      1.0000 0.20979  0.28718  0.71085  Biso   1.000  O
  O55      1.0000 0.15669  0.51720  0.64630  Biso   1.000  O
  O56      1.0000 0.20979  0.55793  0.74131  Biso   1.000  O
  O57      1.0000 0.14637  0.46046  0.78056  Biso   1.000  O
  O58      1.0000 0.12220  0.37665  0.73391  Biso   1.000  O
  O59      1.0000 0.16813  0.36974  0.62120  Biso   1.000  O
  O60      1.0000 0.16211  0.44309  0.55603  Biso   1.000  O
  O61      1.0000 0.31608  0.45876  0.65438  Biso   1.000  O
  O62      1.0000 0.32843  0.47635  0.78557  Biso   1.000  O
  O63      1.0000 0.30354  0.38491  0.72845  Biso   1.000  O
  Zn13     1.0000 0.41778  0.48060  0.65811  Biso   1.000  Zn
  Zn14     1.0000 0.41914  0.48851  0.84552  Biso   1.000  Zn
  Zn15     1.0000 0.39203  0.34200  0.74860  Biso   1.000  Zn
  Zn16     1.0000 0.22644  0.48763  0.60820  Biso   1.000  Zn
  Zn17     1.0000 0.23216  0.50427  0.79360  Biso   1.000  Zn
  Zn18     1.0000 0.20230  0.35795  0.69935  Biso   1.000  Zn
  C325     1.0000 0.29900  0.21680  0.77750  Biso   1.000  C
  C326     1.0000 0.27800  0.21660  0.77400  Biso   1.000  C
  C327     1.0000 0.23860  0.19940  0.79750  Biso   1.000  C
  C328     1.0000 0.21040  0.19540  0.77830  Biso   1.000  C
  C329     1.0000 0.25590  0.16850  0.84420  Biso   1.000  C
  C330     1.0000 0.21170  0.16540  0.82410  Biso   1.000  C
  C331     1.0000 0.32980  0.15760  0.86870  Biso   1.000  C
  C332     1.0000 0.27870  0.15730  0.86190  Biso   1.000  C
  C333     1.0000 0.38880  0.17370  0.84830  Biso   1.000  C
  C334     1.0000 0.34580  0.17610  0.85620  Biso   1.000  C
  C335     1.0000 0.37380  0.20390  0.80090  Biso   1.000  C
  C336     1.0000 0.34680  0.20660  0.81110  Biso   1.000  C
  C337     1.0000 0.02546  0.41088  0.79140  Biso   1.000  C
  C338     1.0000 0.00020  0.45214  0.81400  Biso   1.000  C
  C339     1.0000 0.97900  0.37045  0.77950  Biso   1.000  C
  C340     1.0000 0.90510  0.37170  0.78780  Biso   1.000  C
  C341     1.0000 0.87918  0.41320  0.80840  Biso   1.000  C
  C342     1.0000 0.92760  0.45299  0.82330  Biso   1.000  C
  H197     1.0000 0.62760  0.61090  0.77370  Biso   1.000  H
  H198     1.0000 0.75440  0.59420  0.77610  Biso   1.000  H
  H199     1.0000 0.79420  0.51480  0.76960  Biso   1.000  H
  H200     1.0000 0.70730  0.45200  0.76020  Biso   1.000  H
  H201     1.0000 0.58160  0.46720  0.75880  Biso   1.000  H
  H202     1.0000 0.62050  0.42920  0.87370  Biso   1.000  H
  H203     1.0000 0.74660  0.40930  0.87880  Biso   1.000  H
  H204     1.0000 0.78320  0.32830  0.87870  Biso   1.000  H
  H205     1.0000 0.69310  0.26720  0.87370  Biso   1.000  H
  H206     1.0000 0.56720  0.28670  0.86950  Biso   1.000  H
  H207     1.0000 0.59540  0.38290  0.59280  Biso   1.000  H
  H208     1.0000 0.71820  0.35850  0.59470  Biso   1.000  H
  H209     1.0000 0.78750  0.31520  0.66810  Biso   1.000  H
  H210     1.0000 0.73790  0.29980  0.74180  Biso   1.000  H
  H211     1.0000 0.61550  0.32610  0.74270  Biso   1.000  H
  H212     1.0000 0.44470  0.60870  0.67280  Biso   1.000  H
  H213     1.0000 0.41850  0.69020  0.65490  Biso   1.000  H
  H214     1.0000 0.42980  0.74460  0.72620  Biso   1.000  H
  H215     1.0000 0.46600  0.71790  0.81570  Biso   1.000  H
  H216     1.0000 0.49270  0.63610  0.83340  Biso   1.000  H
  H217     1.0000 0.49420  0.42090  0.97440  Biso   1.000  H
  H218     1.0000 0.48810  0.39540  0.06140  Biso   1.000  H
  H219     1.0000 0.46810  0.31410  0.07720  Biso   1.000  H
  H220     1.0000 0.44670  0.25870  0.00540  Biso   1.000  H
  H221     1.0000 0.44840  0.28460  0.91770  Biso   1.000  H
  H222     1.0000 0.41240  0.28970  0.63480  Biso   1.000  H
  H223     1.0000 0.32300  0.26400  0.55790  Biso   1.000  H
  H224     1.0000 0.28770  0.31380  0.48170  Biso   1.000  H
  H225     1.0000 0.34420  0.38950  0.48220  Biso   1.000  H
  H226     1.0000 0.43280  0.41600  0.55920  Biso   1.000  H
  H227     1.0000 0.44360  0.53130  0.47840  Biso   1.000  H
  H228     1.0000 0.43440  0.49530  0.39370  Biso   1.000  H
  H229     1.0000 0.32570  0.45530  0.35010  Biso   1.000  H
  H230     1.0000 0.22630  0.44710  0.39260  Biso   1.000  H
  H231     1.0000 0.23370  0.48360  0.47710  Biso   1.000  H
  H232     1.0000 0.25480  0.62960  0.53700  Biso   1.000  H
  H233     1.0000 0.27960  0.71030  0.52260  Biso   1.000  H
  H234     1.0000 0.40070  0.73550  0.52140  Biso   1.000  H
  H235     1.0000 0.49960  0.67960  0.53130  Biso   1.000  H
  H236     1.0000 0.47600  0.59710  0.54710  Biso   1.000  H
  H237     1.0000 0.32120  0.61220  0.83940  Biso   1.000  H
  H238     1.0000 0.32530  0.69650  0.84060  Biso   1.000  H
  H239     1.0000 0.31950  0.73850  0.91940  Biso   1.000  H
  H240     1.0000 0.31560  0.69590  0.99810  Biso   1.000  H
  H241     1.0000 0.31520  0.61190  0.99800  Biso   1.000  H
  H242     1.0000 0.41170  0.49490  0.01320  Biso   1.000  H
  H243     1.0000 0.39350  0.46670  0.09640  Biso   1.000  H
  H244     1.0000 0.27450  0.46980  0.11380  Biso   1.000  H
  H245     1.0000 0.17150  0.50040  0.04770  Biso   1.000  H
  H246     1.0000 0.18930  0.52820  0.96420  Biso   1.000  H
  H247     1.0000 0.36260  0.19350  0.65700  Biso   1.000  H
  H248     1.0000 0.32880  0.13760  0.58470  Biso   1.000  H
  H249     1.0000 0.20310  0.12190  0.54510  Biso   1.000  H
  H250     1.0000 0.10900  0.16260  0.57400  Biso   1.000  H
  H251     1.0000 0.14120  0.21980  0.64380  Biso   1.000  H
  H252     1.0000 0.23740  0.64700  0.71720  Biso   1.000  H
  H253     1.0000 0.23490  0.72340  0.67720  Biso   1.000  H
  H254     1.0000 0.15980  0.73820  0.59180  Biso   1.000  H
  H255     1.0000 0.08410  0.67730  0.54320  Biso   1.000  H
  H256     1.0000 0.08380  0.60110  0.58310  Biso   1.000  H
  H257     1.0000 0.17630  0.31050  0.81210  Biso   1.000  H
  H258     1.0000 0.24930  0.27440  0.89060  Biso   1.000  H
  H259     1.0000 0.29350  0.31970  0.97060  Biso   1.000  H
  H260     1.0000 0.27130  0.40180  0.97010  Biso   1.000  H
  H261     1.0000 0.19830  0.43970  0.89200  Biso   1.000  H
  H262     1.0000 0.14070  0.29240  0.55620  Biso   1.000  H
  H263     1.0000 0.12390  0.24080  0.48160  Biso   1.000  H
  H264     1.0000 0.08990  0.27080  0.39360  Biso   1.000  H
  H265     1.0000 0.07380  0.35360  0.37860  Biso   1.000  H
  H266     1.0000 0.09290  0.40660  0.45230  Biso   1.000  H
  H267     1.0000 0.01380  0.50320  0.64350  Biso   1.000  H
  H268     1.0000 0.89050  0.50490  0.65720  Biso   1.000  H
  H269     1.0000 0.86020  0.56160  0.71580  Biso   1.000  H
  H270     1.0000 0.95150  0.61250  0.76480  Biso   1.000  H
  H271     1.0000 0.07460  0.61080  0.75340  Biso   1.000  H
  H272     1.0000 0.02690  0.36910  0.63950  Biso   1.000  H
  H273     1.0000 0.90100  0.38120  0.63790  Biso   1.000  H
  H274     1.0000 0.82610  0.42910  0.57140  Biso   1.000  H
  H275     1.0000 0.87750  0.46590  0.50630  Biso   1.000  H
  H276     1.0000 0.00340  0.45340  0.50720  Biso   1.000  H
  H277     1.0000 0.18820  0.20760  0.78070  Biso   1.000  H
  H278     1.0000 0.16510  0.20070  0.75170  Biso   1.000  H
  H279     1.0000 0.21730  0.15630  0.85880  Biso   1.000  H
  H280     1.0000 0.16710  0.15140  0.82850  Biso   1.000  H
  H281     1.0000 0.34100  0.13930  0.90100  Biso   1.000  H
  H282     1.0000 0.27870  0.13810  0.89240  Biso   1.000  H
  H283     1.0000 0.43860  0.16420  0.86480  Biso   1.000  H
  H284     1.0000 0.39110  0.16900  0.88220  Biso   1.000  H
  H285     1.0000 0.41340  0.21450  0.78550  Biso   1.000  H
  H286     1.0000 0.39200  0.22030  0.80670  Biso   1.000  H
  H287     1.0000 0.03280  0.47990  0.82370  Biso   1.000  H
  H288     1.0000 0.99710  0.34200  0.76530  Biso   1.000  H
  H289     1.0000 0.87310  0.34440  0.77920  Biso   1.000  H
  H290     1.0000 0.82880  0.41380  0.81340  Biso   1.000  H
  H291     1.0000 0.91210  0.48150  0.84070  Biso   1.000  H
  H292     1.0000 0.31030  0.40430  0.75350  Biso   1.000  H
  H293     1.0000 0.31240  0.43370  0.67040  Biso   1.000  H
  H294     1.0000 0.34330  0.48790  0.76030  Biso   1.000  H
  C343     1.0000 0.40820  0.04125  0.73318  Biso   1.000  C
  C344     1.0000 0.35620  0.07884  0.72830  Biso   1.000  C
  C345     1.0000 0.28000  0.06880  0.72705  Biso   1.000  C
  C346     1.0000 0.25670  0.02160  0.73100  Biso   1.000  C
  C347     1.0000 0.30830  0.98379  0.73660  Biso   1.000  C
  C348     1.0000 0.38310  0.99301  0.73753  Biso   1.000  C
  C349     1.0000 0.41950  0.86006  0.62929  Biso   1.000  C
  C350     1.0000 0.36490  0.89626  0.62603  Biso   1.000  C
  C351     1.0000 0.28930  0.88447  0.62310  Biso   1.000  C
  C352     1.0000 0.26770  0.83625  0.62308  Biso   1.000  C
  C353     1.0000 0.32130  0.79968  0.62615  Biso   1.000  C
  C354     1.0000 0.39620  0.81181  0.62885  Biso   1.000  C
  C355     1.0000 0.40780  0.85709  0.83280  Biso   1.000  C
  C356     1.0000 0.37620  0.86630  0.87663  Biso   1.000  C
  C357     1.0000 0.30260  0.85120  0.87570  Biso   1.000  C
  C358     1.0000 0.26120  0.82640  0.83190  Biso   1.000  C
  C359     1.0000 0.29090  0.81692  0.78790  Biso   1.000  C
  C360     1.0000 0.36440  0.83243  0.78760  Biso   1.000  C
  C361     1.0000 0.52870  0.11430  0.74455  Biso   1.000  C
  C362     1.0000 0.55130  0.13038  0.79845  Biso   1.000  C
  C363     1.0000 0.56720  0.17953  0.80880  Biso   1.000  C
  C364     1.0000 0.56030  0.21198  0.76660  Biso   1.000  C
  C365     1.0000 0.53790  0.19608  0.71320  Biso   1.000  C
  C366     1.0000 0.52220  0.14695  0.70245  Biso   1.000  C
  C367     1.0000 0.52820  0.85564  0.56336  Biso   1.000  C
  C368     1.0000 0.51600  0.88839  0.51988  Biso   1.000  C
  C369     1.0000 0.51840  0.87305  0.46727  Biso   1.000  C
  C370     1.0000 0.53140  0.82470  0.45841  Biso   1.000  C
  C371     1.0000 0.54350  0.79143  0.50096  Biso   1.000  C
  C372     1.0000 0.54230  0.80680  0.55324  Biso   1.000  C
  C373     1.0000 0.56820  0.85550  0.89482  Biso   1.000  C
  C374     1.0000 0.60130  0.80961  0.89586  Biso   1.000  C
  C375     1.0000 0.65500  0.79442  0.94203  Biso   1.000  C
  C376     1.0000 0.67580  0.82429  0.98725  Biso   1.000  C
  C377     1.0000 0.64250  0.86968  0.98701  Biso   1.000  C
  C378     1.0000 0.58900  0.88513  0.94084  Biso   1.000  C
  C379     1.0000 0.66120  0.01263  0.01337  Biso   1.000  C
  C380     1.0000 0.60090  0.01490  0.03890  Biso   1.000  C
  C381     1.0000 0.60640  0.99350  0.08970  Biso   1.000  C
  C382     1.0000 0.67100  0.96905  0.11560  Biso   1.000  C
  C383     1.0000 0.73010  0.96469  0.09050  Biso   1.000  C
  C384     1.0000 0.72540  0.98647  0.03958  Biso   1.000  C
  C385     1.0000 0.63730  0.10483  0.95658  Biso   1.000  C
  C386     1.0000 0.69580  0.13903  0.96358  Biso   1.000  C
  C387     1.0000 0.68060  0.18774  0.97190  Biso   1.000  C
  C388     1.0000 0.60840  0.20278  0.97332  Biso   1.000  C
  C389     1.0000 0.54920  0.16926  0.96690  Biso   1.000  C
  C390     1.0000 0.56360  0.12055  0.95781  Biso   1.000  C
  C391     1.0000 0.68160  0.10293  0.58107  Biso   1.000  C
  C392     1.0000 0.67950  0.12908  0.62839  Biso   1.000  C
  C393     1.0000 0.67780  0.17962  0.62786  Biso   1.000  C
  C394     1.0000 0.68000  0.20468  0.58040  Biso   1.000  C
  C395     1.0000 0.68260  0.17902  0.53370  Biso   1.000  C
  C396     1.0000 0.68320  0.12885  0.53364  Biso   1.000  C
  C397     1.0000 0.69800  0.01506  0.51989  Biso   1.000  C
  C398     1.0000 0.63660  0.99627  0.48001  Biso   1.000  C
  C399     1.0000 0.64780  0.97913  0.43036  Biso   1.000  C
  C400     1.0000 0.71900  0.98062  0.42016  Biso   1.000  C
  C401     1.0000 0.77980  0.99923  0.45910  Biso   1.000  C
  C402     1.0000 0.76920  0.01616  0.50919  Biso   1.000  C
  C403     1.0000 0.74420  0.71266  0.84203  Biso   1.000  C
  C404     1.0000 0.68880  0.68786  0.85995  Biso   1.000  C
  C405     1.0000 0.70930  0.65387  0.90310  Biso   1.000  C
  C406     1.0000 0.78380  0.64470  0.92630  Biso   1.000  C
  C407     1.0000 0.83970  0.66890  0.90920  Biso   1.000  C
  C408     1.0000 0.82040  0.70298  0.86750  Biso   1.000  C
  C409     1.0000 0.84050  0.11622  0.84545  Biso   1.000  C
  C410     1.0000 0.79440  0.15289  0.81770  Biso   1.000  C
  C411     1.0000 0.79500  0.19851  0.84190  Biso   1.000  C
  C412     1.0000 0.83950  0.20760  0.89260  Biso   1.000  C
  C413     1.0000 0.88470  0.17140  0.92130  Biso   1.000  C
  C414     1.0000 0.88490  0.12584  0.89750  Biso   1.000  C
  C415     1.0000 0.82070  0.87935  0.65634  Biso   1.000  C
  C416     1.0000 0.80490  0.82926  0.65662  Biso   1.000  C
  C417     1.0000 0.76150  0.80765  0.60900  Biso   1.000  C
  C418     1.0000 0.73430  0.83480  0.56140  Biso   1.000  C
  C419     1.0000 0.74890  0.88372  0.56155  Biso   1.000  C
  C420     1.0000 0.79220  0.90639  0.60820  Biso   1.000  C
  C421     1.0000 0.88130  0.85524  0.98773  Biso   1.000  C
  C422     1.0000 0.87210  0.80527  0.97930  Biso   1.000  C
  C423     1.0000 0.88260  0.77410  0.02420  Biso   1.000  C
  C424     1.0000 0.90270  0.79210  0.07670  Biso   1.000  C
  C425     1.0000 0.91220  0.84140  0.08600  Biso   1.000  C
  C426     1.0000 0.90100  0.87292  0.04162  Biso   1.000  C
  C427     1.0000 0.94320  0.05696  0.80375  Biso   1.000  C
  C428     1.0000 0.99790  0.02560  0.83150  Biso   1.000  C
  C429     1.0000 0.07200  0.02720  0.82340  Biso   1.000  C
  C430     1.0000 0.08970  0.06020  0.78850  Biso   1.000  C
  C431     1.0000 0.03660  0.09060  0.75990  Biso   1.000  C
  C432     1.0000 0.96220  0.08958  0.76680  Biso   1.000  C
  C433     1.0000 0.97010  0.90848  0.92737  Biso   1.000  C
  C434     1.0000 0.00230  0.88772  0.88790  Biso   1.000  C
  C435     1.0000 0.07840  0.89540  0.88880  Biso   1.000  C
  C436     1.0000 0.12300  0.92405  0.92860  Biso   1.000  C
  C437     1.0000 0.09230  0.94570  0.96720  Biso   1.000  C
  C438     1.0000 0.01670  0.93813  0.96658  Biso   1.000  C
  P28      1.0000 0.50673  0.05026  0.73139  Biso   1.000  P
  P29      1.0000 0.51727  0.87427  0.62999  Biso   1.000  P
  P30      1.0000 0.50264  0.87778  0.83295  Biso   1.000  P
  P31      1.0000 0.65528  0.04109  0.94768  Biso   1.000  P
  P32      1.0000 0.68421  0.03723  0.58462  Biso   1.000  P
  P33      1.0000 0.72202  0.75436  0.78472  Biso   1.000  P
  P34      1.0000 0.84793  0.05782  0.81392  Biso   1.000  P
  P35      1.0000 0.87846  0.90846  0.71682  Biso   1.000  P
  P36      1.0000 0.87314  0.89617  0.93010  Biso   1.000  P
  O64      1.0000 0.55815  0.02042  0.77570  Biso   1.000  O
  O65      1.0000 0.51467  0.03862  0.67383  Biso   1.000  O
  O66      1.0000 0.52513  0.92870  0.63546  Biso   1.000  O
  O67      1.0000 0.56919  0.84246  0.67205  Biso   1.000  O
  O68      1.0000 0.52224  0.85632  0.78281  Biso   1.000  O
  O69      1.0000 0.50210  0.93297  0.83657  Biso   1.000  O
  O70      1.0000 0.58576  0.02104  0.90649  Biso   1.000  O
  O71      1.0000 0.73183  0.03679  0.93370  Biso   1.000  O
  O72      1.0000 0.60847  0.01798  0.59096  Biso   1.000  O
  O73      1.0000 0.75351  0.02377  0.62992  Biso   1.000  O
  O74      1.0000 0.64639  0.77808  0.78203  Biso   1.000  O
  O75      1.0000 0.79021  0.78718  0.78915  Biso   1.000  O
  O76      1.0000 0.84331  0.01720  0.85370  Biso   1.000  O
  O77      1.0000 0.79021  0.05793  0.75869  Biso   1.000  O
  O78      1.0000 0.85363  0.96046  0.71944  Biso   1.000  O
  O79      1.0000 0.87780  0.87665  0.76609  Biso   1.000  O
  O80      1.0000 0.83187  0.86974  0.87880  Biso   1.000  O
  O81      1.0000 0.83789  0.94309  0.94397  Biso   1.000  O
  O82      1.0000 0.68392  0.95876  0.84562  Biso   1.000  O
  O83      1.0000 0.67157  0.97635  0.71443  Biso   1.000  O
  O84      1.0000 0.69646  0.88491  0.77155  Biso   1.000  O
  Zn19     1.0000 0.58222  0.98060  0.84189  Biso   1.000  Zn
  Zn20     1.0000 0.58086  0.98851  0.65448  Biso   1.000  Zn
  Zn21     1.0000 0.60797  0.84200  0.75140  Biso   1.000  Zn
  Zn22     1.0000 0.77356  0.98763  0.89180  Biso   1.000  Zn
  Zn23     1.0000 0.76784  0.00427  0.70640  Biso   1.000  Zn
  Zn24     1.0000 0.79770  0.85795  0.80065  Biso   1.000  Zn
  C439     1.0000 0.70100  0.71680  0.72250  Biso   1.000  C
  C440     1.0000 0.72200  0.71660  0.72600  Biso   1.000  C
  C441     1.0000 0.76140  0.69940  0.70250  Biso   1.000  C
  C442     1.0000 0.78960  0.69540  0.72170  Biso   1.000  C
  C443     1.0000 0.74410  0.66850  0.65580  Biso   1.000  C
  C444     1.0000 0.78830  0.66540  0.67590  Biso   1.000  C
  C445     1.0000 0.67020  0.65760  0.63130  Biso   1.000  C
  C446     1.0000 0.72130  0.65730  0.63810  Biso   1.000  C
  C447     1.0000 0.61120  0.67370  0.65170  Biso   1.000  C
  C448     1.0000 0.65420  0.67610  0.64380  Biso   1.000  C
  C449     1.0000 0.62620  0.70390  0.69910  Biso   1.000  C
  C450     1.0000 0.65320  0.70660  0.68890  Biso   1.000  C
  C451     1.0000 0.97454  0.91088  0.70860  Biso   1.000  C
  C452     1.0000 0.99980  0.95214  0.68600  Biso   1.000  C
  C453     1.0000 0.02100  0.87045  0.72050  Biso   1.000  C
  C454     1.0000 0.09490  0.87170  0.71220  Biso   1.000  C
  C455     1.0000 0.12082  0.91320  0.69160  Biso   1.000  C
  C456     1.0000 0.07240  0.95299  0.67670  Biso   1.000  C
  H295     1.0000 0.37240  0.11090  0.72630  Biso   1.000  H
  H296     1.0000 0.24560  0.09420  0.72390  Biso   1.000  H
  H297     1.0000 0.20580  0.01480  0.73040  Biso   1.000  H
  H298     1.0000 0.29270  0.95200  0.73980  Biso   1.000  H
  H299     1.0000 0.41840  0.96720  0.74120  Biso   1.000  H
  H300     1.0000 0.37950  0.92920  0.62630  Biso   1.000  H
  H301     1.0000 0.25340  0.90930  0.62120  Biso   1.000  H
  H302     1.0000 0.21680  0.82830  0.62130  Biso   1.000  H
  H303     1.0000 0.30690  0.76720  0.62630  Biso   1.000  H
  H304     1.0000 0.43280  0.78670  0.63050  Biso   1.000  H
  H305     1.0000 0.40460  0.88290  0.90720  Biso   1.000  H
  H306     1.0000 0.28180  0.85850  0.90530  Biso   1.000  H
  H307     1.0000 0.21250  0.81520  0.83190  Biso   1.000  H
  H308     1.0000 0.26210  0.79980  0.75820  Biso   1.000  H
  H309     1.0000 0.38450  0.82610  0.75730  Biso   1.000  H
  H310     1.0000 0.55530  0.10870  0.82720  Biso   1.000  H
  H311     1.0000 0.58150  0.19020  0.84510  Biso   1.000  H
  H312     1.0000 0.57020  0.24460  0.77380  Biso   1.000  H
  H313     1.0000 0.53400  0.21790  0.68430  Biso   1.000  H
  H314     1.0000 0.50730  0.13610  0.66660  Biso   1.000  H
  H315     1.0000 0.50580  0.92090  0.52560  Biso   1.000  H
  H316     1.0000 0.51190  0.89540  0.43860  Biso   1.000  H
  H317     1.0000 0.53190  0.81410  0.42280  Biso   1.000  H
  H318     1.0000 0.55330  0.75870  0.49460  Biso   1.000  H
  H319     1.0000 0.55160  0.78460  0.58230  Biso   1.000  H
  H320     1.0000 0.58760  0.78970  0.86520  Biso   1.000  H
  H321     1.0000 0.67700  0.76400  0.94210  Biso   1.000  H
  H322     1.0000 0.71230  0.81380  0.01830  Biso   1.000  H
  H323     1.0000 0.65580  0.88950  0.01780  Biso   1.000  H
  H324     1.0000 0.56720  0.91600  0.94080  Biso   1.000  H
  H325     1.0000 0.55640  0.03130  0.02160  Biso   1.000  H
  H326     1.0000 0.56560  0.99530  0.10630  Biso   1.000  H
  H327     1.0000 0.67430  0.95530  0.14990  Biso   1.000  H
  H328     1.0000 0.77370  0.94710  0.10740  Biso   1.000  H
  H329     1.0000 0.76630  0.98360  0.02290  Biso   1.000  H
  H330     1.0000 0.74520  0.12960  0.96300  Biso   1.000  H
  H331     1.0000 0.72040  0.21030  0.97740  Biso   1.000  H
  H332     1.0000 0.59930  0.23550  0.97860  Biso   1.000  H
  H333     1.0000 0.50040  0.17960  0.96870  Biso   1.000  H
  H334     1.0000 0.52400  0.09710  0.95290  Biso   1.000  H
  H335     1.0000 0.67880  0.11220  0.66060  Biso   1.000  H
  H336     1.0000 0.67470  0.19650  0.65940  Biso   1.000  H
  H337     1.0000 0.68050  0.23850  0.58060  Biso   1.000  H
  H338     1.0000 0.68440  0.19590  0.50190  Biso   1.000  H
  H339     1.0000 0.68480  0.11190  0.50200  Biso   1.000  H
  H340     1.0000 0.58830  0.99490  0.48680  Biso   1.000  H
  H341     1.0000 0.60650  0.96670  0.40360  Biso   1.000  H
  H342     1.0000 0.72550  0.96980  0.38620  Biso   1.000  H
  H343     1.0000 0.82850  0.00040  0.45230  Biso   1.000  H
  H344     1.0000 0.81070  0.02820  0.53580  Biso   1.000  H
  H345     1.0000 0.63740  0.69350  0.84300  Biso   1.000  H
  H346     1.0000 0.67120  0.63760  0.91530  Biso   1.000  H
  H347     1.0000 0.79690  0.62190  0.95490  Biso   1.000  H
  H348     1.0000 0.89100  0.66260  0.92600  Biso   1.000  H
  H349     1.0000 0.85880  0.71980  0.85620  Biso   1.000  H
  H350     1.0000 0.76260  0.14700  0.78280  Biso   1.000  H
  H351     1.0000 0.76510  0.22340  0.82280  Biso   1.000  H
  H352     1.0000 0.84020  0.23820  0.90820  Biso   1.000  H
  H353     1.0000 0.91590  0.17730  0.95680  Biso   1.000  H
  H354     1.0000 0.91620  0.10110  0.91690  Biso   1.000  H
  H355     1.0000 0.82370  0.81050  0.68790  Biso   1.000  H
  H356     1.0000 0.75070  0.77440  0.60940  Biso   1.000  H
  H357     1.0000 0.70650  0.81970  0.52940  Biso   1.000  H
  H358     1.0000 0.72870  0.90180  0.52990  Biso   1.000  H
  H359     1.0000 0.80170  0.93970  0.60800  Biso   1.000  H
  H360     1.0000 0.85930  0.79240  0.94380  Biso   1.000  H
  H361     1.0000 0.87610  0.74080  0.01840  Biso   1.000  H
  H362     1.0000 0.91010  0.77080  0.10640  Biso   1.000  H
  H363     1.0000 0.92620  0.85360  0.12140  Biso   1.000  H
  H364     1.0000 0.90710  0.90660  0.04770  Biso   1.000  H
  H365     1.0000 0.98620  0.00320  0.85650  Biso   1.000  H
  H366     1.0000 0.10950  0.00490  0.84280  Biso   1.000  H
  H367     1.0000 0.13980  0.06160  0.78420  Biso   1.000  H
  H368     1.0000 0.04850  0.11250  0.73520  Biso   1.000  H
  H369     1.0000 0.92540  0.11080  0.74660  Biso   1.000  H
  H370     1.0000 0.97310  0.86910  0.86050  Biso   1.000  H
  H371     1.0000 0.09900  0.88120  0.86210  Biso   1.000  H
  H372     1.0000 0.17390  0.92910  0.92860  Biso   1.000  H
  H373     1.0000 0.12250  0.96590  0.99370  Biso   1.000  H
  H374     1.0000 0.99660  0.95340  0.99280  Biso   1.000  H
  H375     1.0000 0.81180  0.70760  0.71930  Biso   1.000  H
  H376     1.0000 0.83490  0.70070  0.74830  Biso   1.000  H
  H377     1.0000 0.78270  0.65630  0.64120  Biso   1.000  H
  H378     1.0000 0.83290  0.65140  0.67150  Biso   1.000  H
  H379     1.0000 0.65900  0.63930  0.59900  Biso   1.000  H
  H380     1.0000 0.72130  0.63810  0.60760  Biso   1.000  H
  H381     1.0000 0.56140  0.66420  0.63520  Biso   1.000  H
  H382     1.0000 0.60890  0.66900  0.61780  Biso   1.000  H
  H383     1.0000 0.58660  0.71450  0.71450  Biso   1.000  H
  H384     1.0000 0.60800  0.72030  0.69330  Biso   1.000  H
  H385     1.0000 0.96720  0.97990  0.67630  Biso   1.000  H
  H386     1.0000 0.00290  0.84200  0.73470  Biso   1.000  H
  H387     1.0000 0.12690  0.84440  0.72080  Biso   1.000  H
  H388     1.0000 0.17120  0.91380  0.68660  Biso   1.000  H
  H389     1.0000 0.08790  0.98150  0.65930  Biso   1.000  H
  H390     1.0000 0.68970  0.90430  0.74650  Biso   1.000  H
  H391     1.0000 0.68760  0.93370  0.82960  Biso   1.000  H
  H392     1.0000 0.65670  0.98790  0.73970  Biso   1.000  H
