data_image0
_cell_length_a       22.9917
_cell_length_b       17.8912
_cell_length_c       20.7881
_cell_angle_alpha    90
_cell_angle_beta     102.477
_cell_angle_gamma    90

_symmetry_space_group_name_H-M    "P 1"
_symmetry_int_tables_number       1

loop_
  _symmetry_equiv_pos_as_xyz
  'x, y, z'

loop_
  _atom_site_label
  _atom_site_occupancy
  _atom_site_fract_x
  _atom_site_fract_y
  _atom_site_fract_z
  _atom_site_thermal_displace_type
  _atom_site_B_iso_or_equiv
  _atom_site_type_symbol
  Pt1      1.0000 0.76655  0.16203  0.97486  Biso   1.000  Pt
  Pt2      1.0000 0.76229  0.01200  0.92016  Biso   1.000  Pt
  N1       1.0000 0.81760  0.06600  0.87220  Biso   1.000  N
  H1       1.0000 0.83500  0.03740  0.84900  Biso   1.000  H
  O1       1.0000 0.81810  0.18470  0.91000  Biso   1.000  O
  O2       1.0000 0.69560  0.18020  0.89940  Biso   1.000  O
  N2       1.0000 0.69400  0.06220  0.85890  Biso   1.000  N
  H2       1.0000 0.67270  0.03290  0.83050  Biso   1.000  H
  N3       1.0000 0.83360  0.14020  0.05080  Biso   1.000  N
  N4       1.0000 0.82700  0.95430  0.98070  Biso   1.000  N
  N5       1.0000 0.71250  0.95010  0.96840  Biso   1.000  N
  N6       1.0000 0.71940  0.13220  0.04020  Biso   1.000  N
  C1       1.0000 0.67680  0.13060  0.85490  Biso   1.000  C
  C2       1.0000 0.83120  0.13480  0.87030  Biso   1.000  C
  C3       1.0000 0.91820  0.08510  0.15280  Biso   1.000  C
  H3       1.0000 0.94710  0.06450  0.18640  Biso   1.000  H
  C4       1.0000 0.74330  0.89940  0.01040  Biso   1.000  C
  C5       1.0000 0.80790  0.90130  0.01680  Biso   1.000  C
  C6       1.0000 0.92570  0.91850  0.02500  Biso   1.000  C
  H4       1.0000 0.96630  0.92580  0.02820  Biso   1.000  H
  C7       1.0000 0.89120  0.15060  0.05070  Biso   1.000  C
  H5       1.0000 0.90220  0.17610  0.01620  Biso   1.000  H
  C8       1.0000 0.86900  0.16010  0.82240  Biso   1.000  C
  C9       1.0000 0.88410  0.96320  0.98400  Biso   1.000  C
  H6       1.0000 0.89700  0.99990  0.95860  Biso   1.000  H
  C10      1.0000 0.84740  0.85570  0.05830  Biso   1.000  C
  H7       1.0000 0.83390  0.82020  0.08430  Biso   1.000  H
  C11      1.0000 0.86020  0.07730  0.15350  Biso   1.000  C
  H8       1.0000 0.84900  0.05350  0.18870  Biso   1.000  H
  C12      1.0000 0.72500  0.07020  0.14260  Biso   1.000  C
  H9       1.0000 0.74760  0.05000  0.18120  Biso   1.000  H
  C13      1.0000 0.71320  0.84940  0.04340  Biso   1.000  C
  H10      1.0000 0.73430  0.81340  0.07120  Biso   1.000  H
  C14      1.0000 0.90600  0.86350  0.06050  Biso   1.000  C
  H11      1.0000 0.93320  0.83140  0.08640  Biso   1.000  H
  C15      1.0000 0.62970  0.15710  0.79750  Biso   1.000  C
  C16      1.0000 0.62230  0.90820  0.99330  Biso   1.000  C
  H12      1.0000 0.58130  0.91340  0.98780  Biso   1.000  H
  C17      1.0000 0.65250  0.85340  0.03490  Biso   1.000  C
  H13      1.0000 0.63210  0.82020  0.05640  Biso   1.000  H
  C18      1.0000 0.65330  0.95400  0.96080  Biso   1.000  C
  H14      1.0000 0.63260  0.98950  0.93210  Biso   1.000  H
  C19      1.0000 0.93440  0.12350  0.10220  Biso   1.000  C
  H15      1.0000 0.97450  0.13120  0.10260  Biso   1.000  H
  C20      1.0000 0.63060  0.10050  0.07540  Biso   1.000  C
  H16      1.0000 0.58920  0.10020  0.06740  Biso   1.000  H
  C21      1.0000 0.66360  0.06870  0.13140  Biso   1.000  C
  H17      1.0000 0.64470  0.04620  0.16180  Biso   1.000  H
  C22      1.0000 0.81710  0.10480  0.10190  Biso   1.000  C
  C23      1.0000 0.75310  0.10150  0.09670  Biso   1.000  C
  C24      1.0000 0.65970  0.13280  0.03120  Biso   1.000  C
  H18      1.0000 0.63740  0.15580  0.99380  Biso   1.000  H
  C25      1.0000 0.84900  0.12380  0.75630  Biso   1.000  C
  H19      1.0000 0.80690  0.13110  0.74090  Biso   1.000  H
  H20      1.0000 0.85750  0.07120  0.76000  Biso   1.000  H
  H21      1.0000 0.86980  0.14580  0.72560  Biso   1.000  H
  C26      1.0000 0.86620  0.24260  0.81240  Biso   1.000  C
  H22      1.0000 0.89310  0.25680  0.78510  Biso   1.000  H
  H23      1.0000 0.87740  0.26720  0.85420  Biso   1.000  H
  H24      1.0000 0.82640  0.25680  0.79130  Biso   1.000  H
  C27      1.0000 0.93200  0.13520  0.85100  Biso   1.000  C
  H25      1.0000 0.95770  0.15250  0.82350  Biso   1.000  H
  H26      1.0000 0.93340  0.08160  0.85340  Biso   1.000  H
  H27      1.0000 0.94490  0.15570  0.89450  Biso   1.000  H
  C28      1.0000 0.64090  0.12380  0.73440  Biso   1.000  C
  H28      1.0000 0.64200  0.07030  0.73790  Biso   1.000  H
  H29      1.0000 0.67830  0.14160  0.72710  Biso   1.000  H
  H30      1.0000 0.60950  0.13840  0.69820  Biso   1.000  H
  C29      1.0000 0.60270  0.10350  0.74480  Biso   1.000  C
  H31      1.0000 0.57510  0.12950  0.71090  Biso   1.000  H
  H32      1.0000 0.58220  0.06500  0.76310  Biso   1.000  H
  H33      1.0000 0.63350  0.08150  0.72630  Biso   1.000  H
  C30      1.0000 0.57260  0.11780  0.80500  Biso   1.000  C
  H34      1.0000 0.53930  0.13900  0.77470  Biso   1.000  H
  H35      1.0000 0.56730  0.12420  0.84930  Biso   1.000  H
  H36      1.0000 0.57540  0.06550  0.79590  Biso   1.000  H
  C31      1.0000 0.57530  0.18340  0.82740  Biso   1.000  C
  H37      1.0000 0.54050  0.18900  0.79260  Biso   1.000  H
  H38      1.0000 0.58460  0.23040  0.84950  Biso   1.000  H
  H39      1.0000 0.56760  0.14680  0.85830  Biso   1.000  H
  C32      1.0000 0.62340  0.24120  0.79280  Biso   1.000  C
  H40      1.0000 0.60280  0.25470  0.74910  Biso   1.000  H
  H41      1.0000 0.66220  0.26380  0.80220  Biso   1.000  H
  H42      1.0000 0.60120  0.25850  0.82400  Biso   1.000  H
  C33      1.0000 0.65230  0.23100  0.77360  Biso   1.000  C
  H43      1.0000 0.67820  0.22030  0.74420  Biso   1.000  H
  H44      1.0000 0.67380  0.25870  0.81080  Biso   1.000  H
  H45      1.0000 0.61900  0.26000  0.75090  Biso   1.000  H
  Pt3      1.0000 0.26655  0.66203  0.97486  Biso   1.000  Pt
  Pt4      1.0000 0.26229  0.51200  0.92016  Biso   1.000  Pt
  N7       1.0000 0.31760  0.56600  0.87220  Biso   1.000  N
  H46      1.0000 0.33500  0.53740  0.84900  Biso   1.000  H
  O3       1.0000 0.31810  0.68470  0.91000  Biso   1.000  O
  O4       1.0000 0.19560  0.68020  0.89940  Biso   1.000  O
  N8       1.0000 0.19400  0.56220  0.85890  Biso   1.000  N
  H47      1.0000 0.17270  0.53290  0.83050  Biso   1.000  H
  N9       1.0000 0.33360  0.64020  0.05080  Biso   1.000  N
  N10      1.0000 0.32700  0.45430  0.98070  Biso   1.000  N
  N11      1.0000 0.21250  0.45010  0.96840  Biso   1.000  N
  N12      1.0000 0.21940  0.63220  0.04020  Biso   1.000  N
  C34      1.0000 0.17680  0.63060  0.85490  Biso   1.000  C
  C35      1.0000 0.33120  0.63480  0.87030  Biso   1.000  C
  C36      1.0000 0.41820  0.58510  0.15280  Biso   1.000  C
  H48      1.0000 0.44710  0.56450  0.18640  Biso   1.000  H
  C37      1.0000 0.24330  0.39940  0.01040  Biso   1.000  C
  C38      1.0000 0.30790  0.40130  0.01680  Biso   1.000  C
  C39      1.0000 0.42570  0.41850  0.02500  Biso   1.000  C
  H49      1.0000 0.46630  0.42580  0.02820  Biso   1.000  H
  C40      1.0000 0.39120  0.65060  0.05070  Biso   1.000  C
  H50      1.0000 0.40220  0.67610  0.01620  Biso   1.000  H
  C41      1.0000 0.36900  0.66010  0.82240  Biso   1.000  C
  C42      1.0000 0.38410  0.46320  0.98400  Biso   1.000  C
  H51      1.0000 0.39700  0.49990  0.95860  Biso   1.000  H
  C43      1.0000 0.34740  0.35570  0.05830  Biso   1.000  C
  H52      1.0000 0.33390  0.32020  0.08430  Biso   1.000  H
  C44      1.0000 0.36020  0.57730  0.15350  Biso   1.000  C
  H53      1.0000 0.34900  0.55350  0.18870  Biso   1.000  H
  C45      1.0000 0.22500  0.57020  0.14260  Biso   1.000  C
  H54      1.0000 0.24760  0.55000  0.18120  Biso   1.000  H
  C46      1.0000 0.21320  0.34940  0.04340  Biso   1.000  C
  H55      1.0000 0.23430  0.31340  0.07120  Biso   1.000  H
  C47      1.0000 0.40600  0.36350  0.06050  Biso   1.000  C
  H56      1.0000 0.43320  0.33140  0.08640  Biso   1.000  H
  C48      1.0000 0.12970  0.65710  0.79750  Biso   1.000  C
  C49      1.0000 0.12230  0.40820  0.99330  Biso   1.000  C
  H57      1.0000 0.08130  0.41340  0.98780  Biso   1.000  H
  C50      1.0000 0.15250  0.35340  0.03490  Biso   1.000  C
  H58      1.0000 0.13210  0.32020  0.05640  Biso   1.000  H
  C51      1.0000 0.15330  0.45400  0.96080  Biso   1.000  C
  H59      1.0000 0.13260  0.48950  0.93210  Biso   1.000  H
  C52      1.0000 0.43440  0.62350  0.10220  Biso   1.000  C
  H60      1.0000 0.47450  0.63120  0.10260  Biso   1.000  H
  C53      1.0000 0.13060  0.60050  0.07540  Biso   1.000  C
  H61      1.0000 0.08920  0.60020  0.06740  Biso   1.000  H
  C54      1.0000 0.16360  0.56870  0.13140  Biso   1.000  C
  H62      1.0000 0.14470  0.54620  0.16180  Biso   1.000  H
  C55      1.0000 0.31710  0.60480  0.10190  Biso   1.000  C
  C56      1.0000 0.25310  0.60150  0.09670  Biso   1.000  C
  C57      1.0000 0.15970  0.63280  0.03120  Biso   1.000  C
  H63      1.0000 0.13740  0.65580  0.99380  Biso   1.000  H
  C58      1.0000 0.34900  0.62380  0.75630  Biso   1.000  C
  H64      1.0000 0.30690  0.63110  0.74090  Biso   1.000  H
  H65      1.0000 0.35750  0.57120  0.76000  Biso   1.000  H
  H66      1.0000 0.36980  0.64580  0.72560  Biso   1.000  H
  C59      1.0000 0.36620  0.74260  0.81240  Biso   1.000  C
  H67      1.0000 0.39310  0.75680  0.78510  Biso   1.000  H
  H68      1.0000 0.37740  0.76720  0.85420  Biso   1.000  H
  H69      1.0000 0.32640  0.75680  0.79130  Biso   1.000  H
  C60      1.0000 0.43200  0.63520  0.85100  Biso   1.000  C
  H70      1.0000 0.45770  0.65250  0.82350  Biso   1.000  H
  H71      1.0000 0.43340  0.58160  0.85340  Biso   1.000  H
  H72      1.0000 0.44490  0.65570  0.89450  Biso   1.000  H
  C61      1.0000 0.14090  0.62380  0.73440  Biso   1.000  C
  H73      1.0000 0.14200  0.57030  0.73790  Biso   1.000  H
  H74      1.0000 0.17830  0.64160  0.72710  Biso   1.000  H
  H75      1.0000 0.10950  0.63840  0.69820  Biso   1.000  H
  C62      1.0000 0.10270  0.60350  0.74480  Biso   1.000  C
  H76      1.0000 0.07510  0.62950  0.71090  Biso   1.000  H
  H77      1.0000 0.08220  0.56500  0.76310  Biso   1.000  H
  H78      1.0000 0.13350  0.58150  0.72630  Biso   1.000  H
  C63      1.0000 0.07260  0.61780  0.80500  Biso   1.000  C
  H79      1.0000 0.03930  0.63900  0.77470  Biso   1.000  H
  H80      1.0000 0.06730  0.62420  0.84930  Biso   1.000  H
  H81      1.0000 0.07540  0.56550  0.79590  Biso   1.000  H
  C64      1.0000 0.07530  0.68340  0.82740  Biso   1.000  C
  H82      1.0000 0.04050  0.68900  0.79260  Biso   1.000  H
  H83      1.0000 0.08460  0.73040  0.84950  Biso   1.000  H
  H84      1.0000 0.06760  0.64680  0.85830  Biso   1.000  H
  C65      1.0000 0.12340  0.74120  0.79280  Biso   1.000  C
  H85      1.0000 0.10280  0.75470  0.74910  Biso   1.000  H
  H86      1.0000 0.16220  0.76380  0.80220  Biso   1.000  H
  H87      1.0000 0.10120  0.75850  0.82400  Biso   1.000  H
  C66      1.0000 0.15230  0.73100  0.77360  Biso   1.000  C
  H88      1.0000 0.17820  0.72030  0.74420  Biso   1.000  H
  H89      1.0000 0.17380  0.75870  0.81080  Biso   1.000  H
  H90      1.0000 0.11900  0.76000  0.75090  Biso   1.000  H
  Pt5      1.0000 0.23345  0.16203  0.52514  Biso   1.000  Pt
  Pt6      1.0000 0.23771  0.01200  0.57984  Biso   1.000  Pt
  N13      1.0000 0.18240  0.06600  0.62780  Biso   1.000  N
  H91      1.0000 0.16500  0.03740  0.65100  Biso   1.000  H
  O5       1.0000 0.18190  0.18470  0.59000  Biso   1.000  O
  O6       1.0000 0.30440  0.18020  0.60060  Biso   1.000  O
  N14      1.0000 0.30600  0.06220  0.64110  Biso   1.000  N
  H92      1.0000 0.32730  0.03290  0.66950  Biso   1.000  H
  N15      1.0000 0.16640  0.14020  0.44920  Biso   1.000  N
  N16      1.0000 0.17300  0.95430  0.51930  Biso   1.000  N
  N17      1.0000 0.28750  0.95010  0.53160  Biso   1.000  N
  N18      1.0000 0.28060  0.13220  0.45980  Biso   1.000  N
  C67      1.0000 0.32320  0.13060  0.64510  Biso   1.000  C
  C68      1.0000 0.16880  0.13480  0.62970  Biso   1.000  C
  C69      1.0000 0.08180  0.08510  0.34720  Biso   1.000  C
  H93      1.0000 0.05290  0.06450  0.31360  Biso   1.000  H
  C70      1.0000 0.25670  0.89940  0.48960  Biso   1.000  C
  C71      1.0000 0.19210  0.90130  0.48320  Biso   1.000  C
  C72      1.0000 0.07430  0.91850  0.47500  Biso   1.000  C
  H94      1.0000 0.03370  0.92580  0.47180  Biso   1.000  H
  C73      1.0000 0.10880  0.15060  0.44930  Biso   1.000  C
  H95      1.0000 0.09780  0.17610  0.48380  Biso   1.000  H
  C74      1.0000 0.13100  0.16010  0.67760  Biso   1.000  C
  C75      1.0000 0.11590  0.96320  0.51600  Biso   1.000  C
  H96      1.0000 0.10300  0.99990  0.54140  Biso   1.000  H
  C76      1.0000 0.15260  0.85570  0.44170  Biso   1.000  C
  H97      1.0000 0.16610  0.82020  0.41570  Biso   1.000  H
  C77      1.0000 0.13980  0.07730  0.34650  Biso   1.000  C
  H98      1.0000 0.15100  0.05350  0.31130  Biso   1.000  H
  C78      1.0000 0.27500  0.07020  0.35740  Biso   1.000  C
  H99      1.0000 0.25240  0.05000  0.31880  Biso   1.000  H
  C79      1.0000 0.28680  0.84940  0.45660  Biso   1.000  C
  H100     1.0000 0.26570  0.81340  0.42880  Biso   1.000  H
  C80      1.0000 0.09400  0.86350  0.43950  Biso   1.000  C
  H101     1.0000 0.06680  0.83140  0.41360  Biso   1.000  H
  C81      1.0000 0.37030  0.15710  0.70250  Biso   1.000  C
  C82      1.0000 0.37770  0.90820  0.50670  Biso   1.000  C
  H102     1.0000 0.41870  0.91340  0.51220  Biso   1.000  H
  C83      1.0000 0.34750  0.85340  0.46510  Biso   1.000  C
  H103     1.0000 0.36790  0.82020  0.44360  Biso   1.000  H
  C84      1.0000 0.34670  0.95400  0.53920  Biso   1.000  C
  H104     1.0000 0.36740  0.98950  0.56790  Biso   1.000  H
  C85      1.0000 0.06560  0.12350  0.39780  Biso   1.000  C
  H105     1.0000 0.02550  0.13120  0.39740  Biso   1.000  H
  C86      1.0000 0.36940  0.10050  0.42460  Biso   1.000  C
  H106     1.0000 0.41080  0.10020  0.43260  Biso   1.000  H
  C87      1.0000 0.33640  0.06870  0.36860  Biso   1.000  C
  H107     1.0000 0.35530  0.04620  0.33820  Biso   1.000  H
  C88      1.0000 0.18290  0.10480  0.39810  Biso   1.000  C
  C89      1.0000 0.24690  0.10150  0.40330  Biso   1.000  C
  C90      1.0000 0.34030  0.13280  0.46880  Biso   1.000  C
  H108     1.0000 0.36260  0.15580  0.50620  Biso   1.000  H
  C91      1.0000 0.15100  0.12380  0.74370  Biso   1.000  C
  H109     1.0000 0.19310  0.13110  0.75910  Biso   1.000  H
  H110     1.0000 0.14250  0.07120  0.74000  Biso   1.000  H
  H111     1.0000 0.13020  0.14580  0.77440  Biso   1.000  H
  C92      1.0000 0.13380  0.24260  0.68760  Biso   1.000  C
  H112     1.0000 0.10690  0.25680  0.71490  Biso   1.000  H
  H113     1.0000 0.12260  0.26720  0.64580  Biso   1.000  H
  H114     1.0000 0.17360  0.25680  0.70870  Biso   1.000  H
  C93      1.0000 0.06800  0.13520  0.64900  Biso   1.000  C
  H115     1.0000 0.04230  0.15250  0.67650  Biso   1.000  H
  H116     1.0000 0.06660  0.08160  0.64660  Biso   1.000  H
  H117     1.0000 0.05510  0.15570  0.60550  Biso   1.000  H
  C94      1.0000 0.35910  0.12380  0.76560  Biso   1.000  C
  H118     1.0000 0.35800  0.07030  0.76210  Biso   1.000  H
  H119     1.0000 0.32170  0.14160  0.77290  Biso   1.000  H
  H120     1.0000 0.39050  0.13840  0.80180  Biso   1.000  H
  C95      1.0000 0.39730  0.10350  0.75520  Biso   1.000  C
  H121     1.0000 0.42490  0.12950  0.78910  Biso   1.000  H
  H122     1.0000 0.41780  0.06500  0.73690  Biso   1.000  H
  H123     1.0000 0.36650  0.08150  0.77370  Biso   1.000  H
  C96      1.0000 0.42740  0.11780  0.69500  Biso   1.000  C
  H124     1.0000 0.46070  0.13900  0.72530  Biso   1.000  H
  H125     1.0000 0.43270  0.12420  0.65070  Biso   1.000  H
  H126     1.0000 0.42460  0.06550  0.70410  Biso   1.000  H
  C97      1.0000 0.42470  0.18340  0.67260  Biso   1.000  C
  H127     1.0000 0.45950  0.18900  0.70740  Biso   1.000  H
  H128     1.0000 0.41540  0.23040  0.65050  Biso   1.000  H
  H129     1.0000 0.43240  0.14680  0.64170  Biso   1.000  H
  C98      1.0000 0.37660  0.24120  0.70720  Biso   1.000  C
  H130     1.0000 0.39720  0.25470  0.75090  Biso   1.000  H
  H131     1.0000 0.33780  0.26380  0.69780  Biso   1.000  H
  H132     1.0000 0.39880  0.25850  0.67600  Biso   1.000  H
  C99      1.0000 0.34770  0.23100  0.72640  Biso   1.000  C
  H133     1.0000 0.32180  0.22030  0.75580  Biso   1.000  H
  H134     1.0000 0.32620  0.25870  0.68920  Biso   1.000  H
  H135     1.0000 0.38100  0.26000  0.74910  Biso   1.000  H
  Pt7      1.0000 0.73345  0.66203  0.52514  Biso   1.000  Pt
  Pt8      1.0000 0.73771  0.51200  0.57984  Biso   1.000  Pt
  N19      1.0000 0.68240  0.56600  0.62780  Biso   1.000  N
  H136     1.0000 0.66500  0.53740  0.65100  Biso   1.000  H
  O7       1.0000 0.68190  0.68470  0.59000  Biso   1.000  O
  O8       1.0000 0.80440  0.68020  0.60060  Biso   1.000  O
  N20      1.0000 0.80600  0.56220  0.64110  Biso   1.000  N
  H137     1.0000 0.82730  0.53290  0.66950  Biso   1.000  H
  N21      1.0000 0.66640  0.64020  0.44920  Biso   1.000  N
  N22      1.0000 0.67300  0.45430  0.51930  Biso   1.000  N
  N23      1.0000 0.78750  0.45010  0.53160  Biso   1.000  N
  N24      1.0000 0.78060  0.63220  0.45980  Biso   1.000  N
  C100     1.0000 0.82320  0.63060  0.64510  Biso   1.000  C
  C101     1.0000 0.66880  0.63480  0.62970  Biso   1.000  C
  C102     1.0000 0.58180  0.58510  0.34720  Biso   1.000  C
  H138     1.0000 0.55290  0.56450  0.31360  Biso   1.000  H
  C103     1.0000 0.75670  0.39940  0.48960  Biso   1.000  C
  C104     1.0000 0.69210  0.40130  0.48320  Biso   1.000  C
  C105     1.0000 0.57430  0.41850  0.47500  Biso   1.000  C
  H139     1.0000 0.53370  0.42580  0.47180  Biso   1.000  H
  C106     1.0000 0.60880  0.65060  0.44930  Biso   1.000  C
  H140     1.0000 0.59780  0.67610  0.48380  Biso   1.000  H
  C107     1.0000 0.63100  0.66010  0.67760  Biso   1.000  C
  C108     1.0000 0.61590  0.46320  0.51600  Biso   1.000  C
  H141     1.0000 0.60300  0.49990  0.54140  Biso   1.000  H
  C109     1.0000 0.65260  0.35570  0.44170  Biso   1.000  C
  H142     1.0000 0.66610  0.32020  0.41570  Biso   1.000  H
  C110     1.0000 0.63980  0.57730  0.34650  Biso   1.000  C
  H143     1.0000 0.65100  0.55350  0.31130  Biso   1.000  H
  C111     1.0000 0.77500  0.57020  0.35740  Biso   1.000  C
  H144     1.0000 0.75240  0.55000  0.31880  Biso   1.000  H
  C112     1.0000 0.78680  0.34940  0.45660  Biso   1.000  C
  H145     1.0000 0.76570  0.31340  0.42880  Biso   1.000  H
  C113     1.0000 0.59400  0.36350  0.43950  Biso   1.000  C
  H146     1.0000 0.56680  0.33140  0.41360  Biso   1.000  H
  C114     1.0000 0.87030  0.65710  0.70250  Biso   1.000  C
  C115     1.0000 0.87770  0.40820  0.50670  Biso   1.000  C
  H147     1.0000 0.91870  0.41340  0.51220  Biso   1.000  H
  C116     1.0000 0.84750  0.35340  0.46510  Biso   1.000  C
  H148     1.0000 0.86790  0.32020  0.44360  Biso   1.000  H
  C117     1.0000 0.84670  0.45400  0.53920  Biso   1.000  C
  H149     1.0000 0.86740  0.48950  0.56790  Biso   1.000  H
  C118     1.0000 0.56560  0.62350  0.39780  Biso   1.000  C
  H150     1.0000 0.52550  0.63120  0.39740  Biso   1.000  H
  C119     1.0000 0.86940  0.60050  0.42460  Biso   1.000  C
  H151     1.0000 0.91080  0.60020  0.43260  Biso   1.000  H
  C120     1.0000 0.83640  0.56870  0.36860  Biso   1.000  C
  H152     1.0000 0.85530  0.54620  0.33820  Biso   1.000  H
  C121     1.0000 0.68290  0.60480  0.39810  Biso   1.000  C
  C122     1.0000 0.74690  0.60150  0.40330  Biso   1.000  C
  C123     1.0000 0.84030  0.63280  0.46880  Biso   1.000  C
  H153     1.0000 0.86260  0.65580  0.50620  Biso   1.000  H
  C124     1.0000 0.65100  0.62380  0.74370  Biso   1.000  C
  H154     1.0000 0.69310  0.63110  0.75910  Biso   1.000  H
  H155     1.0000 0.64250  0.57120  0.74000  Biso   1.000  H
  H156     1.0000 0.63020  0.64580  0.77440  Biso   1.000  H
  C125     1.0000 0.63380  0.74260  0.68760  Biso   1.000  C
  H157     1.0000 0.60690  0.75680  0.71490  Biso   1.000  H
  H158     1.0000 0.62260  0.76720  0.64580  Biso   1.000  H
  H159     1.0000 0.67360  0.75680  0.70870  Biso   1.000  H
  C126     1.0000 0.56800  0.63520  0.64900  Biso   1.000  C
  H160     1.0000 0.54230  0.65250  0.67650  Biso   1.000  H
  H161     1.0000 0.56660  0.58160  0.64660  Biso   1.000  H
  H162     1.0000 0.55510  0.65570  0.60550  Biso   1.000  H
  C127     1.0000 0.85910  0.62380  0.76560  Biso   1.000  C
  H163     1.0000 0.85800  0.57030  0.76210  Biso   1.000  H
  H164     1.0000 0.82170  0.64160  0.77290  Biso   1.000  H
  H165     1.0000 0.89050  0.63840  0.80180  Biso   1.000  H
  C128     1.0000 0.89730  0.60350  0.75520  Biso   1.000  C
  H166     1.0000 0.92490  0.62950  0.78910  Biso   1.000  H
  H167     1.0000 0.91780  0.56500  0.73690  Biso   1.000  H
  H168     1.0000 0.86650  0.58150  0.77370  Biso   1.000  H
  C129     1.0000 0.92740  0.61780  0.69500  Biso   1.000  C
  H169     1.0000 0.96070  0.63900  0.72530  Biso   1.000  H
  H170     1.0000 0.93270  0.62420  0.65070  Biso   1.000  H
  H171     1.0000 0.92460  0.56550  0.70410  Biso   1.000  H
  C130     1.0000 0.92470  0.68340  0.67260  Biso   1.000  C
  H172     1.0000 0.95950  0.68900  0.70740  Biso   1.000  H
  H173     1.0000 0.91540  0.73040  0.65050  Biso   1.000  H
  H174     1.0000 0.93240  0.64680  0.64170  Biso   1.000  H
  C131     1.0000 0.87660  0.74120  0.70720  Biso   1.000  C
  H175     1.0000 0.89720  0.75470  0.75090  Biso   1.000  H
  H176     1.0000 0.83780  0.76380  0.69780  Biso   1.000  H
  H177     1.0000 0.89880  0.75850  0.67600  Biso   1.000  H
  C132     1.0000 0.84770  0.73100  0.72640  Biso   1.000  C
  H178     1.0000 0.82180  0.72030  0.75580  Biso   1.000  H
  H179     1.0000 0.82620  0.75870  0.68920  Biso   1.000  H
  H180     1.0000 0.88100  0.76000  0.74910  Biso   1.000  H
  Pt9      1.0000 0.23345  0.83797  0.02514  Biso   1.000  Pt
  Pt10     1.0000 0.23771  0.98800  0.07984  Biso   1.000  Pt
  N25      1.0000 0.18240  0.93400  0.12780  Biso   1.000  N
  H181     1.0000 0.16500  0.96260  0.15100  Biso   1.000  H
  O9       1.0000 0.18190  0.81530  0.09000  Biso   1.000  O
  O10      1.0000 0.30440  0.81980  0.10060  Biso   1.000  O
  N26      1.0000 0.30600  0.93780  0.14110  Biso   1.000  N
  H182     1.0000 0.32730  0.96710  0.16950  Biso   1.000  H
  N27      1.0000 0.16640  0.85980  0.94920  Biso   1.000  N
  N28      1.0000 0.17300  0.04570  0.01930  Biso   1.000  N
  N29      1.0000 0.28750  0.04990  0.03160  Biso   1.000  N
  N30      1.0000 0.28060  0.86780  0.95980  Biso   1.000  N
  C133     1.0000 0.32320  0.86940  0.14510  Biso   1.000  C
  C134     1.0000 0.16880  0.86520  0.12970  Biso   1.000  C
  C135     1.0000 0.08180  0.91490  0.84720  Biso   1.000  C
  H183     1.0000 0.05290  0.93550  0.81360  Biso   1.000  H
  C136     1.0000 0.25670  0.10060  0.98960  Biso   1.000  C
  C137     1.0000 0.19210  0.09870  0.98320  Biso   1.000  C
  C138     1.0000 0.07430  0.08150  0.97500  Biso   1.000  C
  H184     1.0000 0.03370  0.07420  0.97180  Biso   1.000  H
  C139     1.0000 0.10880  0.84940  0.94930  Biso   1.000  C
  H185     1.0000 0.09780  0.82390  0.98380  Biso   1.000  H
  C140     1.0000 0.13100  0.83990  0.17760  Biso   1.000  C
  C141     1.0000 0.11590  0.03680  0.01600  Biso   1.000  C
  H186     1.0000 0.10300  0.00010  0.04140  Biso   1.000  H
  C142     1.0000 0.15260  0.14430  0.94170  Biso   1.000  C
  H187     1.0000 0.16610  0.17980  0.91570  Biso   1.000  H
  C143     1.0000 0.13980  0.92270  0.84650  Biso   1.000  C
  H188     1.0000 0.15100  0.94650  0.81130  Biso   1.000  H
  C144     1.0000 0.27500  0.92980  0.85740  Biso   1.000  C
  H189     1.0000 0.25240  0.95000  0.81880  Biso   1.000  H
  C145     1.0000 0.28680  0.15060  0.95660  Biso   1.000  C
  H190     1.0000 0.26570  0.18660  0.92880  Biso   1.000  H
  C146     1.0000 0.09400  0.13650  0.93950  Biso   1.000  C
  H191     1.0000 0.06680  0.16860  0.91360  Biso   1.000  H
  C147     1.0000 0.37030  0.84290  0.20250  Biso   1.000  C
  C148     1.0000 0.37770  0.09180  0.00670  Biso   1.000  C
  H192     1.0000 0.41870  0.08660  0.01220  Biso   1.000  H
  C149     1.0000 0.34750  0.14660  0.96510  Biso   1.000  C
  H193     1.0000 0.36790  0.17980  0.94360  Biso   1.000  H
  C150     1.0000 0.34670  0.04600  0.03920  Biso   1.000  C
  H194     1.0000 0.36740  0.01050  0.06790  Biso   1.000  H
  C151     1.0000 0.06560  0.87650  0.89780  Biso   1.000  C
  H195     1.0000 0.02550  0.86880  0.89740  Biso   1.000  H
  C152     1.0000 0.36940  0.89950  0.92460  Biso   1.000  C
  H196     1.0000 0.41080  0.89980  0.93260  Biso   1.000  H
  C153     1.0000 0.33640  0.93130  0.86860  Biso   1.000  C
  H197     1.0000 0.35530  0.95380  0.83820  Biso   1.000  H
  C154     1.0000 0.18290  0.89520  0.89810  Biso   1.000  C
  C155     1.0000 0.24690  0.89850  0.90330  Biso   1.000  C
  C156     1.0000 0.34030  0.86720  0.96880  Biso   1.000  C
  H198     1.0000 0.36260  0.84420  0.00620  Biso   1.000  H
  C157     1.0000 0.15100  0.87620  0.24370  Biso   1.000  C
  H199     1.0000 0.19310  0.86890  0.25910  Biso   1.000  H
  H200     1.0000 0.14250  0.92880  0.24000  Biso   1.000  H
  H201     1.0000 0.13020  0.85420  0.27440  Biso   1.000  H
  C158     1.0000 0.13380  0.75740  0.18760  Biso   1.000  C
  H202     1.0000 0.10690  0.74320  0.21490  Biso   1.000  H
  H203     1.0000 0.12260  0.73280  0.14580  Biso   1.000  H
  H204     1.0000 0.17360  0.74320  0.20870  Biso   1.000  H
  C159     1.0000 0.06800  0.86480  0.14900  Biso   1.000  C
  H205     1.0000 0.04230  0.84750  0.17650  Biso   1.000  H
  H206     1.0000 0.06660  0.91840  0.14660  Biso   1.000  H
  H207     1.0000 0.05510  0.84430  0.10550  Biso   1.000  H
  C160     1.0000 0.35910  0.87620  0.26560  Biso   1.000  C
  H208     1.0000 0.35800  0.92970  0.26210  Biso   1.000  H
  H209     1.0000 0.32170  0.85840  0.27290  Biso   1.000  H
  H210     1.0000 0.39050  0.86160  0.30180  Biso   1.000  H
  C161     1.0000 0.39730  0.89650  0.25520  Biso   1.000  C
  H211     1.0000 0.42490  0.87050  0.28910  Biso   1.000  H
  H212     1.0000 0.41780  0.93500  0.23690  Biso   1.000  H
  H213     1.0000 0.36650  0.91850  0.27370  Biso   1.000  H
  C162     1.0000 0.42740  0.88220  0.19500  Biso   1.000  C
  H214     1.0000 0.46070  0.86100  0.22530  Biso   1.000  H
  H215     1.0000 0.43270  0.87580  0.15070  Biso   1.000  H
  H216     1.0000 0.42460  0.93450  0.20410  Biso   1.000  H
  C163     1.0000 0.42470  0.81660  0.17260  Biso   1.000  C
  H217     1.0000 0.45950  0.81100  0.20740  Biso   1.000  H
  H218     1.0000 0.41540  0.76960  0.15050  Biso   1.000  H
  H219     1.0000 0.43240  0.85320  0.14170  Biso   1.000  H
  C164     1.0000 0.37660  0.75880  0.20720  Biso   1.000  C
  H220     1.0000 0.39720  0.74530  0.25090  Biso   1.000  H
  H221     1.0000 0.33780  0.73620  0.19780  Biso   1.000  H
  H222     1.0000 0.39880  0.74150  0.17600  Biso   1.000  H
  C165     1.0000 0.34770  0.76900  0.22640  Biso   1.000  C
  H223     1.0000 0.32180  0.77970  0.25580  Biso   1.000  H
  H224     1.0000 0.32620  0.74130  0.18920  Biso   1.000  H
  H225     1.0000 0.38100  0.74000  0.24910  Biso   1.000  H
  Pt11     1.0000 0.73345  0.33797  0.02514  Biso   1.000  Pt
  Pt12     1.0000 0.73771  0.48800  0.07984  Biso   1.000  Pt
  N31      1.0000 0.68240  0.43400  0.12780  Biso   1.000  N
  H226     1.0000 0.66500  0.46260  0.15100  Biso   1.000  H
  O11      1.0000 0.68190  0.31530  0.09000  Biso   1.000  O
  O12      1.0000 0.80440  0.31980  0.10060  Biso   1.000  O
  N32      1.0000 0.80600  0.43780  0.14110  Biso   1.000  N
  H227     1.0000 0.82730  0.46710  0.16950  Biso   1.000  H
  N33      1.0000 0.66640  0.35980  0.94920  Biso   1.000  N
  N34      1.0000 0.67300  0.54570  0.01930  Biso   1.000  N
  N35      1.0000 0.78750  0.54990  0.03160  Biso   1.000  N
  N36      1.0000 0.78060  0.36780  0.95980  Biso   1.000  N
  C166     1.0000 0.82320  0.36940  0.14510  Biso   1.000  C
  C167     1.0000 0.66880  0.36520  0.12970  Biso   1.000  C
  C168     1.0000 0.58180  0.41490  0.84720  Biso   1.000  C
  H228     1.0000 0.55290  0.43550  0.81360  Biso   1.000  H
  C169     1.0000 0.75670  0.60060  0.98960  Biso   1.000  C
  C170     1.0000 0.69210  0.59870  0.98320  Biso   1.000  C
  C171     1.0000 0.57430  0.58150  0.97500  Biso   1.000  C
  H229     1.0000 0.53370  0.57420  0.97180  Biso   1.000  H
  C172     1.0000 0.60880  0.34940  0.94930  Biso   1.000  C
  H230     1.0000 0.59780  0.32390  0.98380  Biso   1.000  H
  C173     1.0000 0.63100  0.33990  0.17760  Biso   1.000  C
  C174     1.0000 0.61590  0.53680  0.01600  Biso   1.000  C
  H231     1.0000 0.60300  0.50010  0.04140  Biso   1.000  H
  C175     1.0000 0.65260  0.64430  0.94170  Biso   1.000  C
  H232     1.0000 0.66610  0.67980  0.91570  Biso   1.000  H
  C176     1.0000 0.63980  0.42270  0.84650  Biso   1.000  C
  H233     1.0000 0.65100  0.44650  0.81130  Biso   1.000  H
  C177     1.0000 0.77500  0.42980  0.85740  Biso   1.000  C
  H234     1.0000 0.75240  0.45000  0.81880  Biso   1.000  H
  C178     1.0000 0.78680  0.65060  0.95660  Biso   1.000  C
  H235     1.0000 0.76570  0.68660  0.92880  Biso   1.000  H
  C179     1.0000 0.59400  0.63650  0.93950  Biso   1.000  C
  H236     1.0000 0.56680  0.66860  0.91360  Biso   1.000  H
  C180     1.0000 0.87030  0.34290  0.20250  Biso   1.000  C
  C181     1.0000 0.87770  0.59180  0.00670  Biso   1.000  C
  H237     1.0000 0.91870  0.58660  0.01220  Biso   1.000  H
  C182     1.0000 0.84750  0.64660  0.96510  Biso   1.000  C
  H238     1.0000 0.86790  0.67980  0.94360  Biso   1.000  H
  C183     1.0000 0.84670  0.54600  0.03920  Biso   1.000  C
  H239     1.0000 0.86740  0.51050  0.06790  Biso   1.000  H
  C184     1.0000 0.56560  0.37650  0.89780  Biso   1.000  C
  H240     1.0000 0.52550  0.36880  0.89740  Biso   1.000  H
  C185     1.0000 0.86940  0.39950  0.92460  Biso   1.000  C
  H241     1.0000 0.91080  0.39980  0.93260  Biso   1.000  H
  C186     1.0000 0.83640  0.43130  0.86860  Biso   1.000  C
  H242     1.0000 0.85530  0.45380  0.83820  Biso   1.000  H
  C187     1.0000 0.68290  0.39520  0.89810  Biso   1.000  C
  C188     1.0000 0.74690  0.39850  0.90330  Biso   1.000  C
  C189     1.0000 0.84030  0.36720  0.96880  Biso   1.000  C
  H243     1.0000 0.86260  0.34420  0.00620  Biso   1.000  H
  C190     1.0000 0.65100  0.37620  0.24370  Biso   1.000  C
  H244     1.0000 0.69310  0.36890  0.25910  Biso   1.000  H
  H245     1.0000 0.64250  0.42880  0.24000  Biso   1.000  H
  H246     1.0000 0.63020  0.35420  0.27440  Biso   1.000  H
  C191     1.0000 0.63380  0.25740  0.18760  Biso   1.000  C
  H247     1.0000 0.60690  0.24320  0.21490  Biso   1.000  H
  H248     1.0000 0.62260  0.23280  0.14580  Biso   1.000  H
  H249     1.0000 0.67360  0.24320  0.20870  Biso   1.000  H
  C192     1.0000 0.56800  0.36480  0.14900  Biso   1.000  C
  H250     1.0000 0.54230  0.34750  0.17650  Biso   1.000  H
  H251     1.0000 0.56660  0.41840  0.14660  Biso   1.000  H
  H252     1.0000 0.55510  0.34430  0.10550  Biso   1.000  H
  C193     1.0000 0.85910  0.37620  0.26560  Biso   1.000  C
  H253     1.0000 0.85800  0.42970  0.26210  Biso   1.000  H
  H254     1.0000 0.82170  0.35840  0.27290  Biso   1.000  H
  H255     1.0000 0.89050  0.36160  0.30180  Biso   1.000  H
  C194     1.0000 0.89730  0.39650  0.25520  Biso   1.000  C
  H256     1.0000 0.92490  0.37050  0.28910  Biso   1.000  H
  H257     1.0000 0.91780  0.43500  0.23690  Biso   1.000  H
  H258     1.0000 0.86650  0.41850  0.27370  Biso   1.000  H
  C195     1.0000 0.92740  0.38220  0.19500  Biso   1.000  C
  H259     1.0000 0.96070  0.36100  0.22530  Biso   1.000  H
  H260     1.0000 0.93270  0.37580  0.15070  Biso   1.000  H
  H261     1.0000 0.92460  0.43450  0.20410  Biso   1.000  H
  C196     1.0000 0.92470  0.31660  0.17260  Biso   1.000  C
  H262     1.0000 0.95950  0.31100  0.20740  Biso   1.000  H
  H263     1.0000 0.91540  0.26960  0.15050  Biso   1.000  H
  H264     1.0000 0.93240  0.35320  0.14170  Biso   1.000  H
  C197     1.0000 0.87660  0.25880  0.20720  Biso   1.000  C
  H265     1.0000 0.89720  0.24530  0.25090  Biso   1.000  H
  H266     1.0000 0.83780  0.23620  0.19780  Biso   1.000  H
  H267     1.0000 0.89880  0.24150  0.17600  Biso   1.000  H
  C198     1.0000 0.84770  0.26900  0.22640  Biso   1.000  C
  H268     1.0000 0.82180  0.27970  0.25580  Biso   1.000  H
  H269     1.0000 0.82620  0.24130  0.18920  Biso   1.000  H
  H270     1.0000 0.88100  0.24000  0.24910  Biso   1.000  H
  Pt13     1.0000 0.76655  0.83797  0.47486  Biso   1.000  Pt
  Pt14     1.0000 0.76229  0.98800  0.42016  Biso   1.000  Pt
  N37      1.0000 0.81760  0.93400  0.37220  Biso   1.000  N
  H271     1.0000 0.83500  0.96260  0.34900  Biso   1.000  H
  O13      1.0000 0.81810  0.81530  0.41000  Biso   1.000  O
  O14      1.0000 0.69560  0.81980  0.39940  Biso   1.000  O
  N38      1.0000 0.69400  0.93780  0.35890  Biso   1.000  N
  H272     1.0000 0.67270  0.96710  0.33050  Biso   1.000  H
  N39      1.0000 0.83360  0.85980  0.55080  Biso   1.000  N
  N40      1.0000 0.82700  0.04570  0.48070  Biso   1.000  N
  N41      1.0000 0.71250  0.04990  0.46840  Biso   1.000  N
  N42      1.0000 0.71940  0.86780  0.54020  Biso   1.000  N
  C199     1.0000 0.67680  0.86940  0.35490  Biso   1.000  C
  C200     1.0000 0.83120  0.86520  0.37030  Biso   1.000  C
  C201     1.0000 0.91820  0.91490  0.65280  Biso   1.000  C
  H273     1.0000 0.94710  0.93550  0.68640  Biso   1.000  H
  C202     1.0000 0.74330  0.10060  0.51040  Biso   1.000  C
  C203     1.0000 0.80790  0.09870  0.51680  Biso   1.000  C
  C204     1.0000 0.92570  0.08150  0.52500  Biso   1.000  C
  H274     1.0000 0.96630  0.07420  0.52820  Biso   1.000  H
  C205     1.0000 0.89120  0.84940  0.55070  Biso   1.000  C
  H275     1.0000 0.90220  0.82390  0.51620  Biso   1.000  H
  C206     1.0000 0.86900  0.83990  0.32240  Biso   1.000  C
  C207     1.0000 0.88410  0.03680  0.48400  Biso   1.000  C
  H276     1.0000 0.89700  0.00010  0.45860  Biso   1.000  H
  C208     1.0000 0.84740  0.14430  0.55830  Biso   1.000  C
  H277     1.0000 0.83390  0.17980  0.58430  Biso   1.000  H
  C209     1.0000 0.86020  0.92270  0.65350  Biso   1.000  C
  H278     1.0000 0.84900  0.94650  0.68870  Biso   1.000  H
  C210     1.0000 0.72500  0.92980  0.64260  Biso   1.000  C
  H279     1.0000 0.74760  0.95000  0.68120  Biso   1.000  H
  C211     1.0000 0.71320  0.15060  0.54340  Biso   1.000  C
  H280     1.0000 0.73430  0.18660  0.57120  Biso   1.000  H
  C212     1.0000 0.90600  0.13650  0.56050  Biso   1.000  C
  H281     1.0000 0.93320  0.16860  0.58640  Biso   1.000  H
  C213     1.0000 0.62970  0.84290  0.29750  Biso   1.000  C
  C214     1.0000 0.62230  0.09180  0.49330  Biso   1.000  C
  H282     1.0000 0.58130  0.08660  0.48780  Biso   1.000  H
  C215     1.0000 0.65250  0.14660  0.53490  Biso   1.000  C
  H283     1.0000 0.63210  0.17980  0.55640  Biso   1.000  H
  C216     1.0000 0.65330  0.04600  0.46080  Biso   1.000  C
  H284     1.0000 0.63260  0.01050  0.43210  Biso   1.000  H
  C217     1.0000 0.93440  0.87650  0.60220  Biso   1.000  C
  H285     1.0000 0.97450  0.86880  0.60260  Biso   1.000  H
  C218     1.0000 0.63060  0.89950  0.57540  Biso   1.000  C
  H286     1.0000 0.58920  0.89980  0.56740  Biso   1.000  H
  C219     1.0000 0.66360  0.93130  0.63140  Biso   1.000  C
  H287     1.0000 0.64470  0.95380  0.66180  Biso   1.000  H
  C220     1.0000 0.81710  0.89520  0.60190  Biso   1.000  C
  C221     1.0000 0.75310  0.89850  0.59670  Biso   1.000  C
  C222     1.0000 0.65970  0.86720  0.53120  Biso   1.000  C
  H288     1.0000 0.63740  0.84420  0.49380  Biso   1.000  H
  C223     1.0000 0.84900  0.87620  0.25630  Biso   1.000  C
  H289     1.0000 0.80690  0.86890  0.24090  Biso   1.000  H
  H290     1.0000 0.85750  0.92880  0.26000  Biso   1.000  H
  H291     1.0000 0.86980  0.85420  0.22560  Biso   1.000  H
  C224     1.0000 0.86620  0.75740  0.31240  Biso   1.000  C
  H292     1.0000 0.89310  0.74320  0.28510  Biso   1.000  H
  H293     1.0000 0.87740  0.73280  0.35420  Biso   1.000  H
  H294     1.0000 0.82640  0.74320  0.29130  Biso   1.000  H
  C225     1.0000 0.93200  0.86480  0.35100  Biso   1.000  C
  H295     1.0000 0.95770  0.84750  0.32350  Biso   1.000  H
  H296     1.0000 0.93340  0.91840  0.35340  Biso   1.000  H
  H297     1.0000 0.94490  0.84430  0.39450  Biso   1.000  H
  C226     1.0000 0.64090  0.87620  0.23440  Biso   1.000  C
  H298     1.0000 0.64200  0.92970  0.23790  Biso   1.000  H
  H299     1.0000 0.67830  0.85840  0.22710  Biso   1.000  H
  H300     1.0000 0.60950  0.86160  0.19820  Biso   1.000  H
  C227     1.0000 0.60270  0.89650  0.24480  Biso   1.000  C
  H301     1.0000 0.57510  0.87050  0.21090  Biso   1.000  H
  H302     1.0000 0.58220  0.93500  0.26310  Biso   1.000  H
  H303     1.0000 0.63350  0.91850  0.22630  Biso   1.000  H
  C228     1.0000 0.57260  0.88220  0.30500  Biso   1.000  C
  H304     1.0000 0.53930  0.86100  0.27470  Biso   1.000  H
  H305     1.0000 0.56730  0.87580  0.34930  Biso   1.000  H
  H306     1.0000 0.57540  0.93450  0.29590  Biso   1.000  H
  C229     1.0000 0.57530  0.81660  0.32740  Biso   1.000  C
  H307     1.0000 0.54050  0.81100  0.29260  Biso   1.000  H
  H308     1.0000 0.58460  0.76960  0.34950  Biso   1.000  H
  H309     1.0000 0.56760  0.85320  0.35830  Biso   1.000  H
  C230     1.0000 0.62340  0.75880  0.29280  Biso   1.000  C
  H310     1.0000 0.60280  0.74530  0.24910  Biso   1.000  H
  H311     1.0000 0.66220  0.73620  0.30220  Biso   1.000  H
  H312     1.0000 0.60120  0.74150  0.32400  Biso   1.000  H
  C231     1.0000 0.65230  0.76900  0.27360  Biso   1.000  C
  H313     1.0000 0.67820  0.77970  0.24420  Biso   1.000  H
  H314     1.0000 0.67380  0.74130  0.31080  Biso   1.000  H
  H315     1.0000 0.61900  0.74000  0.25090  Biso   1.000  H
  Pt15     1.0000 0.26655  0.33797  0.47486  Biso   1.000  Pt
  Pt16     1.0000 0.26229  0.48800  0.42016  Biso   1.000  Pt
  N43      1.0000 0.31760  0.43400  0.37220  Biso   1.000  N
  H316     1.0000 0.33500  0.46260  0.34900  Biso   1.000  H
  O15      1.0000 0.31810  0.31530  0.41000  Biso   1.000  O
  O16      1.0000 0.19560  0.31980  0.39940  Biso   1.000  O
  N44      1.0000 0.19400  0.43780  0.35890  Biso   1.000  N
  H317     1.0000 0.17270  0.46710  0.33050  Biso   1.000  H
  N45      1.0000 0.33360  0.35980  0.55080  Biso   1.000  N
  N46      1.0000 0.32700  0.54570  0.48070  Biso   1.000  N
  N47      1.0000 0.21250  0.54990  0.46840  Biso   1.000  N
  N48      1.0000 0.21940  0.36780  0.54020  Biso   1.000  N
  C232     1.0000 0.17680  0.36940  0.35490  Biso   1.000  C
  C233     1.0000 0.33120  0.36520  0.37030  Biso   1.000  C
  C234     1.0000 0.41820  0.41490  0.65280  Biso   1.000  C
  H318     1.0000 0.44710  0.43550  0.68640  Biso   1.000  H
  C235     1.0000 0.24330  0.60060  0.51040  Biso   1.000  C
  C236     1.0000 0.30790  0.59870  0.51680  Biso   1.000  C
  C237     1.0000 0.42570  0.58150  0.52500  Biso   1.000  C
  H319     1.0000 0.46630  0.57420  0.52820  Biso   1.000  H
  C238     1.0000 0.39120  0.34940  0.55070  Biso   1.000  C
  H320     1.0000 0.40220  0.32390  0.51620  Biso   1.000  H
  C239     1.0000 0.36900  0.33990  0.32240  Biso   1.000  C
  C240     1.0000 0.38410  0.53680  0.48400  Biso   1.000  C
  H321     1.0000 0.39700  0.50010  0.45860  Biso   1.000  H
  C241     1.0000 0.34740  0.64430  0.55830  Biso   1.000  C
  H322     1.0000 0.33390  0.67980  0.58430  Biso   1.000  H
  C242     1.0000 0.36020  0.42270  0.65350  Biso   1.000  C
  H323     1.0000 0.34900  0.44650  0.68870  Biso   1.000  H
  C243     1.0000 0.22500  0.42980  0.64260  Biso   1.000  C
  H324     1.0000 0.24760  0.45000  0.68120  Biso   1.000  H
  C244     1.0000 0.21320  0.65060  0.54340  Biso   1.000  C
  H325     1.0000 0.23430  0.68660  0.57120  Biso   1.000  H
  C245     1.0000 0.40600  0.63650  0.56050  Biso   1.000  C
  H326     1.0000 0.43320  0.66860  0.58640  Biso   1.000  H
  C246     1.0000 0.12970  0.34290  0.29750  Biso   1.000  C
  C247     1.0000 0.12230  0.59180  0.49330  Biso   1.000  C
  H327     1.0000 0.08130  0.58660  0.48780  Biso   1.000  H
  C248     1.0000 0.15250  0.64660  0.53490  Biso   1.000  C
  H328     1.0000 0.13210  0.67980  0.55640  Biso   1.000  H
  C249     1.0000 0.15330  0.54600  0.46080  Biso   1.000  C
  H329     1.0000 0.13260  0.51050  0.43210  Biso   1.000  H
  C250     1.0000 0.43440  0.37650  0.60220  Biso   1.000  C
  H330     1.0000 0.47450  0.36880  0.60260  Biso   1.000  H
  C251     1.0000 0.13060  0.39950  0.57540  Biso   1.000  C
  H331     1.0000 0.08920  0.39980  0.56740  Biso   1.000  H
  C252     1.0000 0.16360  0.43130  0.63140  Biso   1.000  C
  H332     1.0000 0.14470  0.45380  0.66180  Biso   1.000  H
  C253     1.0000 0.31710  0.39520  0.60190  Biso   1.000  C
  C254     1.0000 0.25310  0.39850  0.59670  Biso   1.000  C
  C255     1.0000 0.15970  0.36720  0.53120  Biso   1.000  C
  H333     1.0000 0.13740  0.34420  0.49380  Biso   1.000  H
  C256     1.0000 0.34900  0.37620  0.25630  Biso   1.000  C
  H334     1.0000 0.30690  0.36890  0.24090  Biso   1.000  H
  H335     1.0000 0.35750  0.42880  0.26000  Biso   1.000  H
  H336     1.0000 0.36980  0.35420  0.22560  Biso   1.000  H
  C257     1.0000 0.36620  0.25740  0.31240  Biso   1.000  C
  H337     1.0000 0.39310  0.24320  0.28510  Biso   1.000  H
  H338     1.0000 0.37740  0.23280  0.35420  Biso   1.000  H
  H339     1.0000 0.32640  0.24320  0.29130  Biso   1.000  H
  C258     1.0000 0.43200  0.36480  0.35100  Biso   1.000  C
  H340     1.0000 0.45770  0.34750  0.32350  Biso   1.000  H
  H341     1.0000 0.43340  0.41840  0.35340  Biso   1.000  H
  H342     1.0000 0.44490  0.34430  0.39450  Biso   1.000  H
  C259     1.0000 0.14090  0.37620  0.23440  Biso   1.000  C
  H343     1.0000 0.14200  0.42970  0.23790  Biso   1.000  H
  H344     1.0000 0.17830  0.35840  0.22710  Biso   1.000  H
  H345     1.0000 0.10950  0.36160  0.19820  Biso   1.000  H
  C260     1.0000 0.10270  0.39650  0.24480  Biso   1.000  C
  H346     1.0000 0.07510  0.37050  0.21090  Biso   1.000  H
  H347     1.0000 0.08220  0.43500  0.26310  Biso   1.000  H
  H348     1.0000 0.13350  0.41850  0.22630  Biso   1.000  H
  C261     1.0000 0.07260  0.38220  0.30500  Biso   1.000  C
  H349     1.0000 0.03930  0.36100  0.27470  Biso   1.000  H
  H350     1.0000 0.06730  0.37580  0.34930  Biso   1.000  H
  H351     1.0000 0.07540  0.43450  0.29590  Biso   1.000  H
  C262     1.0000 0.07530  0.31660  0.32740  Biso   1.000  C
  H352     1.0000 0.04050  0.31100  0.29260  Biso   1.000  H
  H353     1.0000 0.08460  0.26960  0.34950  Biso   1.000  H
  H354     1.0000 0.06760  0.35320  0.35830  Biso   1.000  H
  C263     1.0000 0.12340  0.25880  0.29280  Biso   1.000  C
  H355     1.0000 0.10280  0.24530  0.24910  Biso   1.000  H
  H356     1.0000 0.16220  0.23620  0.30220  Biso   1.000  H
  H357     1.0000 0.10120  0.24150  0.32400  Biso   1.000  H
  C264     1.0000 0.15230  0.26900  0.27360  Biso   1.000  C
  H358     1.0000 0.17820  0.27970  0.24420  Biso   1.000  H
  H359     1.0000 0.17380  0.24130  0.31080  Biso   1.000  H
  H360     1.0000 0.11900  0.24000  0.25090  Biso   1.000  H
