data_image0
_cell_length_a       31.656
_cell_length_b       31.476
_cell_length_c       21.712
_cell_angle_alpha    90
_cell_angle_beta     124.282
_cell_angle_gamma    90

_symmetry_space_group_name_H-M    "P 1"
_symmetry_int_tables_number       1

loop_
  _symmetry_equiv_pos_as_xyz
  'x, y, z'

loop_
  _atom_site_label
  _atom_site_occupancy
  _atom_site_fract_x
  _atom_site_fract_y
  _atom_site_fract_z
  _atom_site_thermal_displace_type
  _atom_site_B_iso_or_equiv
  _atom_site_type_symbol
  Zn1      1.0000 0.28599  0.56040  0.26195  Biso   1.000  Zn
  Zn2      1.0000 0.21824  0.49628  0.26198  Biso   1.000  Zn
  C1       1.0000 0.39123  0.66453  0.25820  Biso   1.000  C
  C2       1.0000 0.40830  0.70028  0.30500  Biso   1.000  C
  H1       1.0000 0.39910  0.70360  0.33950  Biso   1.000  H
  C3       1.0000 0.43870  0.73110  0.30160  Biso   1.000  C
  H2       1.0000 0.44990  0.75470  0.33440  Biso   1.000  H
  N1       1.0000 0.45278  0.72856  0.25340  Biso   1.000  N
  C4       1.0000 0.43720  0.69442  0.20930  Biso   1.000  C
  H3       1.0000 0.44730  0.69190  0.17570  Biso   1.000  H
  C5       1.0000 0.40710  0.66238  0.20960  Biso   1.000  C
  H4       1.0000 0.39730  0.63890  0.17680  Biso   1.000  H
  B1       1.0000 0.35610  0.62844  0.26060  Biso   1.000  B
  O1       1.0000 0.30670  0.64961  0.23410  Biso   1.000  O
  N2       1.0000 0.27132  0.62598  0.24010  Biso   1.000  N
  C6       1.0000 0.23610  0.64928  0.23390  Biso   1.000  C
  H5       1.0000 0.23760  0.67880  0.22610  Biso   1.000  H
  C7       1.0000 0.19340  0.63503  0.23740  Biso   1.000  C
  C8       1.0000 0.18240  0.59131  0.23980  Biso   1.000  C
  C9       1.0000 0.13890  0.58250  0.24230  Biso   1.000  C
  C10      1.0000 0.11040  0.61594  0.24360  Biso   1.000  C
  H6       1.0000 0.08180  0.60910  0.24530  Biso   1.000  H
  C11      1.0000 0.12130  0.65849  0.24270  Biso   1.000  C
  C12      1.0000 0.16290  0.66665  0.23910  Biso   1.000  C
  H7       1.0000 0.17130  0.69550  0.23770  Biso   1.000  H
  C13      1.0000 0.12440  0.53936  0.24760  Biso   1.000  C
  H8       1.0000 0.09450  0.53640  0.24740  Biso   1.000  H
  N3       1.0000 0.14790  0.50500  0.25250  Biso   1.000  N
  O2       1.0000 0.12350  0.46897  0.25710  Biso   1.000  O
  B2       1.0000 0.14800  0.42830  0.26280  Biso   1.000  B
  O3       1.0000 0.35120  0.59439  0.21100  Biso   1.000  O
  N4       1.0000 0.31780  0.56104  0.19750  Biso   1.000  N
  C14      1.0000 0.31510  0.53396  0.15140  Biso   1.000  C
  H9       1.0000 0.33450  0.53980  0.13130  Biso   1.000  H
  C15      1.0000 0.28510  0.49514  0.12740  Biso   1.000  C
  C16      1.0000 0.25370  0.48237  0.15230  Biso   1.000  C
  C17      1.0000 0.22570  0.44413  0.12270  Biso   1.000  C
  C18      1.0000 0.22960  0.42000  0.07180  Biso   1.000  C
  H10      1.0000 0.21030  0.39460  0.05270  Biso   1.000  H
  C19      1.0000 0.26070  0.43170  0.04800  Biso   1.000  C
  C20      1.0000 0.28770  0.46960  0.07700  Biso   1.000  C
  H11      1.0000 0.30910  0.47850  0.06160  Biso   1.000  H
  C21      1.0000 0.19100  0.42730  0.14190  Biso   1.000  C
  H12      1.0000 0.17230  0.40240  0.11660  Biso   1.000  H
  N5       1.0000 0.18400  0.44333  0.18960  Biso   1.000  N
  O4       1.0000 0.14890  0.41916  0.19550  Biso   1.000  O
  O5       1.0000 0.38325  0.61345  0.33880  Biso   1.000  O
  N6       1.0000 0.36166  0.57782  0.35010  Biso   1.000  N
  C22      1.0000 0.39290  0.55960  0.41210  Biso   1.000  C
  H13      1.0000 0.42650  0.57110  0.44200  Biso   1.000  H
  C23      1.0000 0.38180  0.52270  0.44110  Biso   1.000  C
  C24      1.0000 0.33290  0.50250  0.40320  Biso   1.000  C
  C25      1.0000 0.32810  0.46690  0.43940  Biso   1.000  C
  C26      1.0000 0.37000  0.45900  0.51440  Biso   1.000  C
  H14      1.0000 0.36540  0.43710  0.54020  Biso   1.000  H
  C27      1.0000 0.41700  0.48000  0.55370  Biso   1.000  C
  C28      1.0000 0.46330  0.46860  0.63220  Biso   1.000  C
  C29      1.0000 0.45320  0.42600  0.65750  Biso   1.000  C
  H15      1.0000 0.44240  0.40450  0.61870  Biso   1.000  H
  H16      1.0000 0.42620  0.43000  0.66600  Biso   1.000  H
  H17      1.0000 0.48460  0.41660  0.70380  Biso   1.000  H
  C30      1.0000 0.51040  0.46320  0.63030  Biso   1.000  C
  H18      1.0000 0.51450  0.48830  0.60750  Biso   1.000  H
  H19      1.0000 0.50620  0.43790  0.60090  Biso   1.000  H
  H20      1.0000 0.54070  0.45980  0.68130  Biso   1.000  H
  C31      1.0000 0.47490  0.50420  0.68780  Biso   1.000  C
  H21      1.0000 0.44660  0.50660  0.69400  Biso   1.000  H
  H22      1.0000 0.47880  0.53110  0.66890  Biso   1.000  H
  H23      1.0000 0.50650  0.49770  0.73590  Biso   1.000  H
  C32      1.0000 0.42040  0.51420  0.51590  Biso   1.000  C
  H24      1.0000 0.44960  0.53210  0.54140  Biso   1.000  H
  C33      1.0000 0.28010  0.44340  0.40740  Biso   1.000  C
  H25      1.0000 0.28110  0.41920  0.43440  Biso   1.000  H
  N7       1.0000 0.23726  0.45182  0.34720  Biso   1.000  N
  O6       1.0000 0.19870  0.42304  0.33310  Biso   1.000  O
  C34      1.0000 0.11210  0.39117  0.26080  Biso   1.000  C
  C35      1.0000 0.13130  0.35624  0.30840  Biso   1.000  C
  H26      1.0000 0.16690  0.35430  0.34580  Biso   1.000  H
  C36      1.0000 0.09880  0.32412  0.30180  Biso   1.000  C
  H27      1.0000 0.11340  0.30040  0.33440  Biso   1.000  H
  N8       1.0000 0.04783  0.32476  0.25160  Biso   1.000  N
  C37      1.0000 0.02880  0.35823  0.20620  Biso   1.000  C
  H28      1.0000 0.99290  0.35960  0.17030  Biso   1.000  H
  C38      1.0000 0.05900  0.39141  0.20870  Biso   1.000  C
  H29      1.0000 0.04340  0.41440  0.17480  Biso   1.000  H
  O7       1.0000 0.21095  0.56107  0.23920  Biso   1.000  O
  C39      1.0000 0.08900  0.69320  0.24790  Biso   1.000  C
  C40      1.0000 0.10620  0.73710  0.24310  Biso   1.000  C
  H30      1.0000 0.08420  0.75840  0.24450  Biso   1.000  H
  H31      1.0000 0.10400  0.73980  0.19630  Biso   1.000  H
  H32      1.0000 0.14170  0.74150  0.28530  Biso   1.000  H
  C41      1.0000 0.03290  0.68780  0.18320  Biso   1.000  C
  H33      1.0000 0.02450  0.70820  0.14380  Biso   1.000  H
  H34      1.0000 0.01100  0.69290  0.20110  Biso   1.000  H
  H35      1.0000 0.02740  0.65890  0.16340  Biso   1.000  H
  C42      1.0000 0.09180  0.68750  0.31910  Biso   1.000  C
  H36      1.0000 0.07310  0.66180  0.31560  Biso   1.000  H
  H37      1.0000 0.07640  0.71220  0.32680  Biso   1.000  H
  H38      1.0000 0.12760  0.68490  0.36120  Biso   1.000  H
  O8       1.0000 0.25094  0.50489  0.19990  Biso   1.000  O
  O9       1.0000 0.29353  0.51790  0.34170  Biso   1.000  O
  C43      1.0000 0.27240  0.39750  0.00570  Biso   1.000  C
  C44      1.0000 0.28590  0.41920  0.95840  Biso   1.000  C
  H39      1.0000 0.26370  0.44400  0.93450  Biso   1.000  H
  H40      1.0000 0.28120  0.39950  0.92000  Biso   1.000  H
  H41      1.0000 0.32170  0.42840  0.98940  Biso   1.000  H
  C45      1.0000 0.30270  0.35630  0.04830  Biso   1.000  C
  H42      1.0000 0.30670  0.33830  0.01510  Biso   1.000  H
  H43      1.0000 0.28390  0.34070  0.06460  Biso   1.000  H
  H44      1.0000 0.33650  0.36410  0.09190  Biso   1.000  H
  C46      1.0000 0.21250  0.37860  0.93480  Biso   1.000  C
  H45      1.0000 0.21640  0.35800  0.90440  Biso   1.000  H
  H46      1.0000 0.19120  0.40230  0.90350  Biso   1.000  H
  H47      1.0000 0.19620  0.36460  0.95670  Biso   1.000  H
  N9       1.0000 0.43650  0.32410  0.47610  Biso   1.000  N
  O10      1.0000 0.38590  0.33620  0.51940  Biso   1.000  O
  C47      1.0000 0.48270  0.33840  0.54450  Biso   1.000  C
  H48      1.0000 0.49900  0.36060  0.53300  Biso   1.000  H
  H49      1.0000 0.50630  0.31440  0.56860  Biso   1.000  H
  H50      1.0000 0.47410  0.34990  0.57810  Biso   1.000  H
  C48      1.0000 0.43410  0.31140  0.40960  Biso   1.000  C
  H51      1.0000 0.40170  0.32090  0.36510  Biso   1.000  H
  H52      1.0000 0.43650  0.28040  0.40860  Biso   1.000  H
  H53      1.0000 0.46260  0.32440  0.41050  Biso   1.000  H
  C49      1.0000 0.39010  0.32380  0.47120  Biso   1.000  C
  H54      1.0000 0.36050  0.31310  0.42690  Biso   1.000  H
  N10      1.0000 0.38800  0.42610  0.33500  Biso   1.000  N
  C50      1.0000 0.39160  0.43590  0.27330  Biso   1.000  C
  H55      1.0000 0.35840  0.43080  0.22630  Biso   1.000  H
  H56      1.0000 0.41760  0.41780  0.27540  Biso   1.000  H
  H57      1.0000 0.40110  0.46580  0.27600  Biso   1.000  H
  C51      1.0000 0.33870  0.41120  0.31500  Biso   1.000  C
  H58      1.0000 0.32190  0.39570  0.26770  Biso   1.000  H
  H59      1.0000 0.31760  0.43550  0.30970  Biso   1.000  H
  H60      1.0000 0.34320  0.39220  0.35410  Biso   1.000  H
  C52      1.0000 0.42940  0.42680  0.41050  Biso   1.000  C
  H61      1.0000 0.42130  0.42070  0.44550  Biso   1.000  H
  O11      1.0000 0.47310  0.43410  0.43590  Biso   1.000  O
  C53      1.0000 0.25930  0.41100  0.98280  Biso   1.000  C
  C54      1.0000 0.23450  0.44240  0.91560  Biso   1.000  C
  H62      1.0000 0.20060  0.45090  0.90270  Biso   1.000  H
  H63      1.0000 0.23110  0.42850  0.87270  Biso   1.000  H
  H64      1.0000 0.25610  0.46770  0.92920  Biso   1.000  H
  C55      1.0000 0.31460  0.40040  0.00980  Biso   1.000  C
  H65      1.0000 0.31710  0.39900  0.96690  Biso   1.000  H
  H66      1.0000 0.32440  0.37300  0.03560  Biso   1.000  H
  H67      1.0000 0.33760  0.42260  0.04410  Biso   1.000  H
  C56      1.0000 0.23020  0.36920  0.95990  Biso   1.000  C
  H68      1.0000 0.23000  0.35690  0.91820  Biso   1.000  H
  H69      1.0000 0.19500  0.37430  0.94440  Biso   1.000  H
  H70      1.0000 0.24690  0.34950  0.00210  Biso   1.000  H
  C57      1.0000 0.37080  0.44010  0.48710  Biso   1.000  C
  H71      1.0000 0.36560  0.41200  0.49740  Biso   1.000  H
  C58      1.0000 0.45710  0.40360  0.62910  Biso   1.000  C
  H72      1.0000 0.43580  0.37870  0.60290  Biso   1.000  H
  H73      1.0000 0.43920  0.42230  0.64350  Biso   1.000  H
  H74      1.0000 0.48960  0.39450  0.67380  Biso   1.000  H
  C59      1.0000 0.51470  0.45450  0.62550  Biso   1.000  C
  H75      1.0000 0.51590  0.46510  0.66890  Biso   1.000  H
  H76      1.0000 0.51380  0.47850  0.59610  Biso   1.000  H
  H77      1.0000 0.54510  0.43710  0.64240  Biso   1.000  H
  C60      1.0000 0.47810  0.39460  0.53850  Biso   1.000  C
  H78      1.0000 0.50460  0.40520  0.53220  Biso   1.000  H
  H79      1.0000 0.44690  0.38870  0.48940  Biso   1.000  H
  H80      1.0000 0.49000  0.36850  0.56810  Biso   1.000  H
  C61      1.0000 0.41950  0.45500  0.51800  Biso   1.000  C
  C62      1.0000 0.46720  0.42770  0.57790  Biso   1.000  C
  C63      1.0000 0.42450  0.49440  0.49280  Biso   1.000  C
  H81      1.0000 0.45810  0.50370  0.51040  Biso   1.000  H
  N11      1.0000 0.26930  0.30870  0.54710  Biso   1.000  N
  C64      1.0000 0.22590  0.30360  0.55190  Biso   1.000  C
  H82      1.0000 0.23550  0.28560  0.59480  Biso   1.000  H
  H83      1.0000 0.19780  0.29020  0.50620  Biso   1.000  H
  H84      1.0000 0.21490  0.33150  0.55790  Biso   1.000  H
  C65      1.0000 0.27750  0.35170  0.53090  Biso   1.000  C
  H85      1.0000 0.28950  0.35050  0.49800  Biso   1.000  H
  H86      1.0000 0.30320  0.36600  0.57740  Biso   1.000  H
  H87      1.0000 0.24530  0.36760  0.50620  Biso   1.000  H
  C66      1.0000 0.30470  0.27830  0.55890  Biso   1.000  C
  H88      1.0000 0.32990  0.28800  0.55140  Biso   1.000  H
  O12      1.0000 0.30890  0.24200  0.57690  Biso   1.000  O
  N12      1.0000 0.38190  0.39640  0.31000  Biso   1.000  N
  C67      1.0000 0.39220  0.35190  0.33300  Biso   1.000  C
  H89      1.0000 0.36100  0.33850  0.32300  Biso   1.000  H
  H90      1.0000 0.41910  0.35030  0.38630  Biso   1.000  H
  H91      1.0000 0.40340  0.33710  0.30480  Biso   1.000  H
  C68      1.0000 0.32940  0.40890  0.25600  Biso   1.000  C
  H92      1.0000 0.30650  0.38630  0.25170  Biso   1.000  H
  H93      1.0000 0.32400  0.41390  0.20790  Biso   1.000  H
  H94      1.0000 0.32210  0.43510  0.27330  Biso   1.000  H
  C69      1.0000 0.42010  0.42820  0.33700  Biso   1.000  C
  H95      1.0000 0.40970  0.45670  0.32160  Biso   1.000  H
  O13      1.0000 0.46700  0.42040  0.38100  Biso   1.000  O
  N13      1.0000 0.29750  0.31370  0.55410  Biso   1.000  N
  C70      1.0000 0.26210  0.34830  0.53810  Biso   1.000  C
  H96      1.0000 0.27850  0.37550  0.54200  Biso   1.000  H
  H97      1.0000 0.23130  0.34500  0.48760  Biso   1.000  H
  H98      1.0000 0.25270  0.34760  0.57410  Biso   1.000  H
  C71      1.0000 0.29760  0.28120  0.60280  Biso   1.000  C
  H99      1.0000 0.26980  0.26100  0.57260  Biso   1.000  H
  H100     1.0000 0.33040  0.26610  0.62920  Biso   1.000  H
  H101     1.0000 0.29280  0.29490  0.63890  Biso   1.000  H
  C72      1.0000 0.32770  0.31170  0.52810  Biso   1.000  C
  H102     1.0000 0.34900  0.28770  0.53910  Biso   1.000  H
  O14      1.0000 0.32780  0.34040  0.49100  Biso   1.000  O
  Zn3      1.0000 0.78599  0.06040  0.26195  Biso   1.000  Zn
  Zn4      1.0000 0.71824  0.99628  0.26198  Biso   1.000  Zn
  C73      1.0000 0.89123  0.16453  0.25820  Biso   1.000  C
  C74      1.0000 0.90830  0.20028  0.30500  Biso   1.000  C
  H103     1.0000 0.89910  0.20360  0.33950  Biso   1.000  H
  C75      1.0000 0.93870  0.23110  0.30160  Biso   1.000  C
  H104     1.0000 0.94990  0.25470  0.33440  Biso   1.000  H
  N14      1.0000 0.95278  0.22856  0.25340  Biso   1.000  N
  C76      1.0000 0.93720  0.19442  0.20930  Biso   1.000  C
  H105     1.0000 0.94730  0.19190  0.17570  Biso   1.000  H
  C77      1.0000 0.90710  0.16238  0.20960  Biso   1.000  C
  H106     1.0000 0.89730  0.13890  0.17680  Biso   1.000  H
  B3       1.0000 0.85610  0.12844  0.26060  Biso   1.000  B
  O15      1.0000 0.80670  0.14961  0.23410  Biso   1.000  O
  N15      1.0000 0.77132  0.12598  0.24010  Biso   1.000  N
  C78      1.0000 0.73610  0.14928  0.23390  Biso   1.000  C
  H107     1.0000 0.73760  0.17880  0.22610  Biso   1.000  H
  C79      1.0000 0.69340  0.13503  0.23740  Biso   1.000  C
  C80      1.0000 0.68240  0.09131  0.23980  Biso   1.000  C
  C81      1.0000 0.63890  0.08250  0.24230  Biso   1.000  C
  C82      1.0000 0.61040  0.11594  0.24360  Biso   1.000  C
  H108     1.0000 0.58180  0.10910  0.24530  Biso   1.000  H
  C83      1.0000 0.62130  0.15849  0.24270  Biso   1.000  C
  C84      1.0000 0.66290  0.16665  0.23910  Biso   1.000  C
  H109     1.0000 0.67130  0.19550  0.23770  Biso   1.000  H
  C85      1.0000 0.62440  0.03936  0.24760  Biso   1.000  C
  H110     1.0000 0.59450  0.03640  0.24740  Biso   1.000  H
  N16      1.0000 0.64790  0.00500  0.25250  Biso   1.000  N
  O16      1.0000 0.62350  0.96897  0.25710  Biso   1.000  O
  B4       1.0000 0.64800  0.92830  0.26280  Biso   1.000  B
  O17      1.0000 0.85120  0.09439  0.21100  Biso   1.000  O
  N17      1.0000 0.81780  0.06104  0.19750  Biso   1.000  N
  C86      1.0000 0.81510  0.03396  0.15140  Biso   1.000  C
  H111     1.0000 0.83450  0.03980  0.13130  Biso   1.000  H
  C87      1.0000 0.78510  0.99514  0.12740  Biso   1.000  C
  C88      1.0000 0.75370  0.98237  0.15230  Biso   1.000  C
  C89      1.0000 0.72570  0.94413  0.12270  Biso   1.000  C
  C90      1.0000 0.72960  0.92000  0.07180  Biso   1.000  C
  H112     1.0000 0.71030  0.89460  0.05270  Biso   1.000  H
  C91      1.0000 0.76070  0.93170  0.04800  Biso   1.000  C
  C92      1.0000 0.78770  0.96960  0.07700  Biso   1.000  C
  H113     1.0000 0.80910  0.97850  0.06160  Biso   1.000  H
  C93      1.0000 0.69100  0.92730  0.14190  Biso   1.000  C
  H114     1.0000 0.67230  0.90240  0.11660  Biso   1.000  H
  N18      1.0000 0.68400  0.94333  0.18960  Biso   1.000  N
  O18      1.0000 0.64890  0.91916  0.19550  Biso   1.000  O
  O19      1.0000 0.88325  0.11345  0.33880  Biso   1.000  O
  N19      1.0000 0.86166  0.07782  0.35010  Biso   1.000  N
  C94      1.0000 0.89290  0.05960  0.41210  Biso   1.000  C
  H115     1.0000 0.92650  0.07110  0.44200  Biso   1.000  H
  C95      1.0000 0.88180  0.02270  0.44110  Biso   1.000  C
  C96      1.0000 0.83290  0.00250  0.40320  Biso   1.000  C
  C97      1.0000 0.82810  0.96690  0.43940  Biso   1.000  C
  C98      1.0000 0.87000  0.95900  0.51440  Biso   1.000  C
  H116     1.0000 0.86540  0.93710  0.54020  Biso   1.000  H
  C99      1.0000 0.91700  0.98000  0.55370  Biso   1.000  C
  C100     1.0000 0.96330  0.96860  0.63220  Biso   1.000  C
  C101     1.0000 0.95320  0.92600  0.65750  Biso   1.000  C
  H117     1.0000 0.94240  0.90450  0.61870  Biso   1.000  H
  H118     1.0000 0.92620  0.93000  0.66600  Biso   1.000  H
  H119     1.0000 0.98460  0.91660  0.70380  Biso   1.000  H
  C102     1.0000 0.01040  0.96320  0.63030  Biso   1.000  C
  H120     1.0000 0.01450  0.98830  0.60750  Biso   1.000  H
  H121     1.0000 0.00620  0.93790  0.60090  Biso   1.000  H
  H122     1.0000 0.04070  0.95980  0.68130  Biso   1.000  H
  C103     1.0000 0.97490  0.00420  0.68780  Biso   1.000  C
  H123     1.0000 0.94660  0.00660  0.69400  Biso   1.000  H
  H124     1.0000 0.97880  0.03110  0.66890  Biso   1.000  H
  H125     1.0000 0.00650  0.99770  0.73590  Biso   1.000  H
  C104     1.0000 0.92040  0.01420  0.51590  Biso   1.000  C
  H126     1.0000 0.94960  0.03210  0.54140  Biso   1.000  H
  C105     1.0000 0.78010  0.94340  0.40740  Biso   1.000  C
  H127     1.0000 0.78110  0.91920  0.43440  Biso   1.000  H
  N20      1.0000 0.73726  0.95182  0.34720  Biso   1.000  N
  O20      1.0000 0.69870  0.92304  0.33310  Biso   1.000  O
  C106     1.0000 0.61210  0.89117  0.26080  Biso   1.000  C
  C107     1.0000 0.63130  0.85624  0.30840  Biso   1.000  C
  H128     1.0000 0.66690  0.85430  0.34580  Biso   1.000  H
  C108     1.0000 0.59880  0.82412  0.30180  Biso   1.000  C
  H129     1.0000 0.61340  0.80040  0.33440  Biso   1.000  H
  N21      1.0000 0.54783  0.82476  0.25160  Biso   1.000  N
  C109     1.0000 0.52880  0.85823  0.20620  Biso   1.000  C
  H130     1.0000 0.49290  0.85960  0.17030  Biso   1.000  H
  C110     1.0000 0.55900  0.89141  0.20870  Biso   1.000  C
  H131     1.0000 0.54340  0.91440  0.17480  Biso   1.000  H
  O21      1.0000 0.71095  0.06107  0.23920  Biso   1.000  O
  C111     1.0000 0.58900  0.19320  0.24790  Biso   1.000  C
  C112     1.0000 0.60620  0.23710  0.24310  Biso   1.000  C
  H132     1.0000 0.58420  0.25840  0.24450  Biso   1.000  H
  H133     1.0000 0.60400  0.23980  0.19630  Biso   1.000  H
  H134     1.0000 0.64170  0.24150  0.28530  Biso   1.000  H
  C113     1.0000 0.53290  0.18780  0.18320  Biso   1.000  C
  H135     1.0000 0.52450  0.20820  0.14380  Biso   1.000  H
  H136     1.0000 0.51100  0.19290  0.20110  Biso   1.000  H
  H137     1.0000 0.52740  0.15890  0.16340  Biso   1.000  H
  C114     1.0000 0.59180  0.18750  0.31910  Biso   1.000  C
  H138     1.0000 0.57310  0.16180  0.31560  Biso   1.000  H
  H139     1.0000 0.57640  0.21220  0.32680  Biso   1.000  H
  H140     1.0000 0.62760  0.18490  0.36120  Biso   1.000  H
  O22      1.0000 0.75094  0.00489  0.19990  Biso   1.000  O
  O23      1.0000 0.79353  0.01790  0.34170  Biso   1.000  O
  C115     1.0000 0.77240  0.89750  0.00570  Biso   1.000  C
  C116     1.0000 0.78590  0.91920  0.95840  Biso   1.000  C
  H141     1.0000 0.76370  0.94400  0.93450  Biso   1.000  H
  H142     1.0000 0.78120  0.89950  0.92000  Biso   1.000  H
  H143     1.0000 0.82170  0.92840  0.98940  Biso   1.000  H
  C117     1.0000 0.80270  0.85630  0.04830  Biso   1.000  C
  H144     1.0000 0.80670  0.83830  0.01510  Biso   1.000  H
  H145     1.0000 0.78390  0.84070  0.06460  Biso   1.000  H
  H146     1.0000 0.83650  0.86410  0.09190  Biso   1.000  H
  C118     1.0000 0.71250  0.87860  0.93480  Biso   1.000  C
  H147     1.0000 0.71640  0.85800  0.90440  Biso   1.000  H
  H148     1.0000 0.69120  0.90230  0.90350  Biso   1.000  H
  H149     1.0000 0.69620  0.86460  0.95670  Biso   1.000  H
  N22      1.0000 0.93650  0.82410  0.47610  Biso   1.000  N
  O24      1.0000 0.88590  0.83620  0.51940  Biso   1.000  O
  C119     1.0000 0.98270  0.83840  0.54450  Biso   1.000  C
  H150     1.0000 0.99900  0.86060  0.53300  Biso   1.000  H
  H151     1.0000 0.00630  0.81440  0.56860  Biso   1.000  H
  H152     1.0000 0.97410  0.84990  0.57810  Biso   1.000  H
  C120     1.0000 0.93410  0.81140  0.40960  Biso   1.000  C
  H153     1.0000 0.90170  0.82090  0.36510  Biso   1.000  H
  H154     1.0000 0.93650  0.78040  0.40860  Biso   1.000  H
  H155     1.0000 0.96260  0.82440  0.41050  Biso   1.000  H
  C121     1.0000 0.89010  0.82380  0.47120  Biso   1.000  C
  H156     1.0000 0.86050  0.81310  0.42690  Biso   1.000  H
  N23      1.0000 0.88800  0.92610  0.33500  Biso   1.000  N
  C122     1.0000 0.89160  0.93590  0.27330  Biso   1.000  C
  H157     1.0000 0.85840  0.93080  0.22630  Biso   1.000  H
  H158     1.0000 0.91760  0.91780  0.27540  Biso   1.000  H
  H159     1.0000 0.90110  0.96580  0.27600  Biso   1.000  H
  C123     1.0000 0.83870  0.91120  0.31500  Biso   1.000  C
  H160     1.0000 0.82190  0.89570  0.26770  Biso   1.000  H
  H161     1.0000 0.81760  0.93550  0.30970  Biso   1.000  H
  H162     1.0000 0.84320  0.89220  0.35410  Biso   1.000  H
  C124     1.0000 0.92940  0.92680  0.41050  Biso   1.000  C
  H163     1.0000 0.92130  0.92070  0.44550  Biso   1.000  H
  O25      1.0000 0.97310  0.93410  0.43590  Biso   1.000  O
  C125     1.0000 0.75930  0.91100  0.98280  Biso   1.000  C
  C126     1.0000 0.73450  0.94240  0.91560  Biso   1.000  C
  H164     1.0000 0.70060  0.95090  0.90270  Biso   1.000  H
  H165     1.0000 0.73110  0.92850  0.87270  Biso   1.000  H
  H166     1.0000 0.75610  0.96770  0.92920  Biso   1.000  H
  C127     1.0000 0.81460  0.90040  0.00980  Biso   1.000  C
  H167     1.0000 0.81710  0.89900  0.96690  Biso   1.000  H
  H168     1.0000 0.82440  0.87300  0.03560  Biso   1.000  H
  H169     1.0000 0.83760  0.92260  0.04410  Biso   1.000  H
  C128     1.0000 0.73020  0.86920  0.95990  Biso   1.000  C
  H170     1.0000 0.73000  0.85690  0.91820  Biso   1.000  H
  H171     1.0000 0.69500  0.87430  0.94440  Biso   1.000  H
  H172     1.0000 0.74690  0.84950  0.00210  Biso   1.000  H
  C129     1.0000 0.87080  0.94010  0.48710  Biso   1.000  C
  H173     1.0000 0.86560  0.91200  0.49740  Biso   1.000  H
  C130     1.0000 0.95710  0.90360  0.62910  Biso   1.000  C
  H174     1.0000 0.93580  0.87870  0.60290  Biso   1.000  H
  H175     1.0000 0.93920  0.92230  0.64350  Biso   1.000  H
  H176     1.0000 0.98960  0.89450  0.67380  Biso   1.000  H
  C131     1.0000 0.01470  0.95450  0.62550  Biso   1.000  C
  H177     1.0000 0.01590  0.96510  0.66890  Biso   1.000  H
  H178     1.0000 0.01380  0.97850  0.59610  Biso   1.000  H
  H179     1.0000 0.04510  0.93710  0.64240  Biso   1.000  H
  C132     1.0000 0.97810  0.89460  0.53850  Biso   1.000  C
  H180     1.0000 0.00460  0.90520  0.53220  Biso   1.000  H
  H181     1.0000 0.94690  0.88870  0.48940  Biso   1.000  H
  H182     1.0000 0.99000  0.86850  0.56810  Biso   1.000  H
  C133     1.0000 0.91950  0.95500  0.51800  Biso   1.000  C
  C134     1.0000 0.96720  0.92770  0.57790  Biso   1.000  C
  C135     1.0000 0.92450  0.99440  0.49280  Biso   1.000  C
  H183     1.0000 0.95810  0.00370  0.51040  Biso   1.000  H
  N24      1.0000 0.76930  0.80870  0.54710  Biso   1.000  N
  C136     1.0000 0.72590  0.80360  0.55190  Biso   1.000  C
  H184     1.0000 0.73550  0.78560  0.59480  Biso   1.000  H
  H185     1.0000 0.69780  0.79020  0.50620  Biso   1.000  H
  H186     1.0000 0.71490  0.83150  0.55790  Biso   1.000  H
  C137     1.0000 0.77750  0.85170  0.53090  Biso   1.000  C
  H187     1.0000 0.78950  0.85050  0.49800  Biso   1.000  H
  H188     1.0000 0.80320  0.86600  0.57740  Biso   1.000  H
  H189     1.0000 0.74530  0.86760  0.50620  Biso   1.000  H
  C138     1.0000 0.80470  0.77830  0.55890  Biso   1.000  C
  H190     1.0000 0.82990  0.78800  0.55140  Biso   1.000  H
  O26      1.0000 0.80890  0.74200  0.57690  Biso   1.000  O
  N25      1.0000 0.88190  0.89640  0.31000  Biso   1.000  N
  C139     1.0000 0.89220  0.85190  0.33300  Biso   1.000  C
  H191     1.0000 0.86100  0.83850  0.32300  Biso   1.000  H
  H192     1.0000 0.91910  0.85030  0.38630  Biso   1.000  H
  H193     1.0000 0.90340  0.83710  0.30480  Biso   1.000  H
  C140     1.0000 0.82940  0.90890  0.25600  Biso   1.000  C
  H194     1.0000 0.80650  0.88630  0.25170  Biso   1.000  H
  H195     1.0000 0.82400  0.91390  0.20790  Biso   1.000  H
  H196     1.0000 0.82210  0.93510  0.27330  Biso   1.000  H
  C141     1.0000 0.92010  0.92820  0.33700  Biso   1.000  C
  H197     1.0000 0.90970  0.95670  0.32160  Biso   1.000  H
  O27      1.0000 0.96700  0.92040  0.38100  Biso   1.000  O
  N26      1.0000 0.79750  0.81370  0.55410  Biso   1.000  N
  C142     1.0000 0.76210  0.84830  0.53810  Biso   1.000  C
  H198     1.0000 0.77850  0.87550  0.54200  Biso   1.000  H
  H199     1.0000 0.73130  0.84500  0.48760  Biso   1.000  H
  H200     1.0000 0.75270  0.84760  0.57410  Biso   1.000  H
  C143     1.0000 0.79760  0.78120  0.60280  Biso   1.000  C
  H201     1.0000 0.76980  0.76100  0.57260  Biso   1.000  H
  H202     1.0000 0.83040  0.76610  0.62920  Biso   1.000  H
  H203     1.0000 0.79280  0.79490  0.63890  Biso   1.000  H
  C144     1.0000 0.82770  0.81170  0.52810  Biso   1.000  C
  H204     1.0000 0.84900  0.78770  0.53910  Biso   1.000  H
  O28      1.0000 0.82780  0.84040  0.49100  Biso   1.000  O
  Zn5      1.0000 0.71401  0.56040  0.23805  Biso   1.000  Zn
  Zn6      1.0000 0.78176  0.49628  0.23802  Biso   1.000  Zn
  C145     1.0000 0.60877  0.66453  0.24180  Biso   1.000  C
  C146     1.0000 0.59170  0.70028  0.19500  Biso   1.000  C
  H205     1.0000 0.60090  0.70360  0.16050  Biso   1.000  H
  C147     1.0000 0.56130  0.73110  0.19840  Biso   1.000  C
  H206     1.0000 0.55010  0.75470  0.16560  Biso   1.000  H
  N27      1.0000 0.54722  0.72856  0.24660  Biso   1.000  N
  C148     1.0000 0.56280  0.69442  0.29070  Biso   1.000  C
  H207     1.0000 0.55270  0.69190  0.32430  Biso   1.000  H
  C149     1.0000 0.59290  0.66238  0.29040  Biso   1.000  C
  H208     1.0000 0.60270  0.63890  0.32320  Biso   1.000  H
  B5       1.0000 0.64390  0.62844  0.23940  Biso   1.000  B
  O29      1.0000 0.69330  0.64961  0.26590  Biso   1.000  O
  N28      1.0000 0.72868  0.62598  0.25990  Biso   1.000  N
  C150     1.0000 0.76390  0.64928  0.26610  Biso   1.000  C
  H209     1.0000 0.76240  0.67880  0.27390  Biso   1.000  H
  C151     1.0000 0.80660  0.63503  0.26260  Biso   1.000  C
  C152     1.0000 0.81760  0.59131  0.26020  Biso   1.000  C
  C153     1.0000 0.86110  0.58250  0.25770  Biso   1.000  C
  C154     1.0000 0.88960  0.61594  0.25640  Biso   1.000  C
  H210     1.0000 0.91820  0.60910  0.25470  Biso   1.000  H
  C155     1.0000 0.87870  0.65849  0.25730  Biso   1.000  C
  C156     1.0000 0.83710  0.66665  0.26090  Biso   1.000  C
  H211     1.0000 0.82870  0.69550  0.26230  Biso   1.000  H
  C157     1.0000 0.87560  0.53936  0.25240  Biso   1.000  C
  H212     1.0000 0.90550  0.53640  0.25260  Biso   1.000  H
  N29      1.0000 0.85210  0.50500  0.24750  Biso   1.000  N
  O30      1.0000 0.87650  0.46897  0.24290  Biso   1.000  O
  B6       1.0000 0.85200  0.42830  0.23720  Biso   1.000  B
  O31      1.0000 0.64880  0.59439  0.28900  Biso   1.000  O
  N30      1.0000 0.68220  0.56104  0.30250  Biso   1.000  N
  C158     1.0000 0.68490  0.53396  0.34860  Biso   1.000  C
  H213     1.0000 0.66550  0.53980  0.36870  Biso   1.000  H
  C159     1.0000 0.71490  0.49514  0.37260  Biso   1.000  C
  C160     1.0000 0.74630  0.48237  0.34770  Biso   1.000  C
  C161     1.0000 0.77430  0.44413  0.37730  Biso   1.000  C
  C162     1.0000 0.77040  0.42000  0.42820  Biso   1.000  C
  H214     1.0000 0.78970  0.39460  0.44730  Biso   1.000  H
  C163     1.0000 0.73930  0.43170  0.45200  Biso   1.000  C
  C164     1.0000 0.71230  0.46960  0.42300  Biso   1.000  C
  H215     1.0000 0.69090  0.47850  0.43840  Biso   1.000  H
  C165     1.0000 0.80900  0.42730  0.35810  Biso   1.000  C
  H216     1.0000 0.82770  0.40240  0.38340  Biso   1.000  H
  N31      1.0000 0.81600  0.44333  0.31040  Biso   1.000  N
  O32      1.0000 0.85110  0.41916  0.30450  Biso   1.000  O
  O33      1.0000 0.61675  0.61345  0.16120  Biso   1.000  O
  N32      1.0000 0.63834  0.57782  0.14990  Biso   1.000  N
  C166     1.0000 0.60710  0.55960  0.08790  Biso   1.000  C
  H217     1.0000 0.57350  0.57110  0.05800  Biso   1.000  H
  C167     1.0000 0.61820  0.52270  0.05890  Biso   1.000  C
  C168     1.0000 0.66710  0.50250  0.09680  Biso   1.000  C
  C169     1.0000 0.67190  0.46690  0.06060  Biso   1.000  C
  C170     1.0000 0.63000  0.45900  0.98560  Biso   1.000  C
  H218     1.0000 0.63460  0.43710  0.95980  Biso   1.000  H
  C171     1.0000 0.58300  0.48000  0.94630  Biso   1.000  C
  C172     1.0000 0.53670  0.46860  0.86780  Biso   1.000  C
  C173     1.0000 0.54680  0.42600  0.84250  Biso   1.000  C
  H219     1.0000 0.55760  0.40450  0.88130  Biso   1.000  H
  H220     1.0000 0.57380  0.43000  0.83400  Biso   1.000  H
  H221     1.0000 0.51540  0.41660  0.79620  Biso   1.000  H
  C174     1.0000 0.48960  0.46320  0.86970  Biso   1.000  C
  H222     1.0000 0.48550  0.48830  0.89250  Biso   1.000  H
  H223     1.0000 0.49380  0.43790  0.89910  Biso   1.000  H
  H224     1.0000 0.45930  0.45980  0.81870  Biso   1.000  H
  C175     1.0000 0.52510  0.50420  0.81220  Biso   1.000  C
  H225     1.0000 0.55340  0.50660  0.80600  Biso   1.000  H
  H226     1.0000 0.52120  0.53110  0.83110  Biso   1.000  H
  H227     1.0000 0.49350  0.49770  0.76410  Biso   1.000  H
  C176     1.0000 0.57960  0.51420  0.98410  Biso   1.000  C
  H228     1.0000 0.55040  0.53210  0.95860  Biso   1.000  H
  C177     1.0000 0.71990  0.44340  0.09260  Biso   1.000  C
  H229     1.0000 0.71890  0.41920  0.06560  Biso   1.000  H
  N33      1.0000 0.76274  0.45182  0.15280  Biso   1.000  N
  O34      1.0000 0.80130  0.42304  0.16690  Biso   1.000  O
  C178     1.0000 0.88790  0.39117  0.23920  Biso   1.000  C
  C179     1.0000 0.86870  0.35624  0.19160  Biso   1.000  C
  H230     1.0000 0.83310  0.35430  0.15420  Biso   1.000  H
  C180     1.0000 0.90120  0.32412  0.19820  Biso   1.000  C
  H231     1.0000 0.88660  0.30040  0.16560  Biso   1.000  H
  N34      1.0000 0.95217  0.32476  0.24840  Biso   1.000  N
  C181     1.0000 0.97120  0.35823  0.29380  Biso   1.000  C
  H232     1.0000 0.00710  0.35960  0.32970  Biso   1.000  H
  C182     1.0000 0.94100  0.39141  0.29130  Biso   1.000  C
  H233     1.0000 0.95660  0.41440  0.32520  Biso   1.000  H
  O35      1.0000 0.78905  0.56107  0.26080  Biso   1.000  O
  C183     1.0000 0.91100  0.69320  0.25210  Biso   1.000  C
  C184     1.0000 0.89380  0.73710  0.25690  Biso   1.000  C
  H234     1.0000 0.91580  0.75840  0.25550  Biso   1.000  H
  H235     1.0000 0.89600  0.73980  0.30370  Biso   1.000  H
  H236     1.0000 0.85830  0.74150  0.21470  Biso   1.000  H
  C185     1.0000 0.96710  0.68780  0.31680  Biso   1.000  C
  H237     1.0000 0.97550  0.70820  0.35620  Biso   1.000  H
  H238     1.0000 0.98900  0.69290  0.29890  Biso   1.000  H
  H239     1.0000 0.97260  0.65890  0.33660  Biso   1.000  H
  C186     1.0000 0.90820  0.68750  0.18090  Biso   1.000  C
  H240     1.0000 0.92690  0.66180  0.18440  Biso   1.000  H
  H241     1.0000 0.92360  0.71220  0.17320  Biso   1.000  H
  H242     1.0000 0.87240  0.68490  0.13880  Biso   1.000  H
  O36      1.0000 0.74906  0.50489  0.30010  Biso   1.000  O
  O37      1.0000 0.70647  0.51790  0.15830  Biso   1.000  O
  C187     1.0000 0.72760  0.39750  0.49430  Biso   1.000  C
  C188     1.0000 0.71410  0.41920  0.54160  Biso   1.000  C
  H243     1.0000 0.73630  0.44400  0.56550  Biso   1.000  H
  H244     1.0000 0.71880  0.39950  0.58000  Biso   1.000  H
  H245     1.0000 0.67830  0.42840  0.51060  Biso   1.000  H
  C189     1.0000 0.69730  0.35630  0.45170  Biso   1.000  C
  H246     1.0000 0.69330  0.33830  0.48490  Biso   1.000  H
  H247     1.0000 0.71610  0.34070  0.43540  Biso   1.000  H
  H248     1.0000 0.66350  0.36410  0.40810  Biso   1.000  H
  C190     1.0000 0.78750  0.37860  0.56520  Biso   1.000  C
  H249     1.0000 0.78360  0.35800  0.59560  Biso   1.000  H
  H250     1.0000 0.80880  0.40230  0.59650  Biso   1.000  H
  H251     1.0000 0.80380  0.36460  0.54330  Biso   1.000  H
  N35      1.0000 0.56350  0.32410  0.02390  Biso   1.000  N
  O38      1.0000 0.61410  0.33620  0.98060  Biso   1.000  O
  C191     1.0000 0.51730  0.33840  0.95550  Biso   1.000  C
  H252     1.0000 0.50100  0.36060  0.96700  Biso   1.000  H
  H253     1.0000 0.49370  0.31440  0.93140  Biso   1.000  H
  H254     1.0000 0.52590  0.34990  0.92190  Biso   1.000  H
  C192     1.0000 0.56590  0.31140  0.09040  Biso   1.000  C
  H255     1.0000 0.59830  0.32090  0.13490  Biso   1.000  H
  H256     1.0000 0.56350  0.28040  0.09140  Biso   1.000  H
  H257     1.0000 0.53740  0.32440  0.08950  Biso   1.000  H
  C193     1.0000 0.60990  0.32380  0.02880  Biso   1.000  C
  H258     1.0000 0.63950  0.31310  0.07310  Biso   1.000  H
  N36      1.0000 0.61200  0.42610  0.16500  Biso   1.000  N
  C194     1.0000 0.60840  0.43590  0.22670  Biso   1.000  C
  H259     1.0000 0.64160  0.43080  0.27370  Biso   1.000  H
  H260     1.0000 0.58240  0.41780  0.22460  Biso   1.000  H
  H261     1.0000 0.59890  0.46580  0.22400  Biso   1.000  H
  C195     1.0000 0.66130  0.41120  0.18500  Biso   1.000  C
  H262     1.0000 0.67810  0.39570  0.23230  Biso   1.000  H
  H263     1.0000 0.68240  0.43550  0.19030  Biso   1.000  H
  H264     1.0000 0.65680  0.39220  0.14590  Biso   1.000  H
  C196     1.0000 0.57060  0.42680  0.08950  Biso   1.000  C
  H265     1.0000 0.57870  0.42070  0.05450  Biso   1.000  H
  O39      1.0000 0.52690  0.43410  0.06410  Biso   1.000  O
  C197     1.0000 0.74070  0.41100  0.51720  Biso   1.000  C
  C198     1.0000 0.76550  0.44240  0.58440  Biso   1.000  C
  H266     1.0000 0.79940  0.45090  0.59730  Biso   1.000  H
  H267     1.0000 0.76890  0.42850  0.62730  Biso   1.000  H
  H268     1.0000 0.74390  0.46770  0.57080  Biso   1.000  H
  C199     1.0000 0.68540  0.40040  0.49020  Biso   1.000  C
  H269     1.0000 0.68290  0.39900  0.53310  Biso   1.000  H
  H270     1.0000 0.67560  0.37300  0.46440  Biso   1.000  H
  H271     1.0000 0.66240  0.42260  0.45590  Biso   1.000  H
  C200     1.0000 0.76980  0.36920  0.54010  Biso   1.000  C
  H272     1.0000 0.77000  0.35690  0.58180  Biso   1.000  H
  H273     1.0000 0.80500  0.37430  0.55560  Biso   1.000  H
  H274     1.0000 0.75310  0.34950  0.49790  Biso   1.000  H
  C201     1.0000 0.62920  0.44010  0.01290  Biso   1.000  C
  H275     1.0000 0.63440  0.41200  0.00260  Biso   1.000  H
  C202     1.0000 0.54290  0.40360  0.87090  Biso   1.000  C
  H276     1.0000 0.56420  0.37870  0.89710  Biso   1.000  H
  H277     1.0000 0.56080  0.42230  0.85650  Biso   1.000  H
  H278     1.0000 0.51040  0.39450  0.82620  Biso   1.000  H
  C203     1.0000 0.48530  0.45450  0.87450  Biso   1.000  C
  H279     1.0000 0.48410  0.46510  0.83110  Biso   1.000  H
  H280     1.0000 0.48620  0.47850  0.90390  Biso   1.000  H
  H281     1.0000 0.45490  0.43710  0.85760  Biso   1.000  H
  C204     1.0000 0.52190  0.39460  0.96150  Biso   1.000  C
  H282     1.0000 0.49540  0.40520  0.96780  Biso   1.000  H
  H283     1.0000 0.55310  0.38870  0.01060  Biso   1.000  H
  H284     1.0000 0.51000  0.36850  0.93190  Biso   1.000  H
  C205     1.0000 0.58050  0.45500  0.98200  Biso   1.000  C
  C206     1.0000 0.53280  0.42770  0.92210  Biso   1.000  C
  C207     1.0000 0.57550  0.49440  0.00720  Biso   1.000  C
  H285     1.0000 0.54190  0.50370  0.98960  Biso   1.000  H
  N37      1.0000 0.73070  0.30870  0.95290  Biso   1.000  N
  C208     1.0000 0.77410  0.30360  0.94810  Biso   1.000  C
  H286     1.0000 0.76450  0.28560  0.90520  Biso   1.000  H
  H287     1.0000 0.80220  0.29020  0.99380  Biso   1.000  H
  H288     1.0000 0.78510  0.33150  0.94210  Biso   1.000  H
  C209     1.0000 0.72250  0.35170  0.96910  Biso   1.000  C
  H289     1.0000 0.71050  0.35050  0.00200  Biso   1.000  H
  H290     1.0000 0.69680  0.36600  0.92260  Biso   1.000  H
  H291     1.0000 0.75470  0.36760  0.99380  Biso   1.000  H
  C210     1.0000 0.69530  0.27830  0.94110  Biso   1.000  C
  H292     1.0000 0.67010  0.28800  0.94860  Biso   1.000  H
  O40      1.0000 0.69110  0.24200  0.92310  Biso   1.000  O
  N38      1.0000 0.61810  0.39640  0.19000  Biso   1.000  N
  C211     1.0000 0.60780  0.35190  0.16700  Biso   1.000  C
  H293     1.0000 0.63900  0.33850  0.17700  Biso   1.000  H
  H294     1.0000 0.58090  0.35030  0.11370  Biso   1.000  H
  H295     1.0000 0.59660  0.33710  0.19520  Biso   1.000  H
  C212     1.0000 0.67060  0.40890  0.24400  Biso   1.000  C
  H296     1.0000 0.69350  0.38630  0.24830  Biso   1.000  H
  H297     1.0000 0.67600  0.41390  0.29210  Biso   1.000  H
  H298     1.0000 0.67790  0.43510  0.22670  Biso   1.000  H
  C213     1.0000 0.57990  0.42820  0.16300  Biso   1.000  C
  H299     1.0000 0.59030  0.45670  0.17840  Biso   1.000  H
  O41      1.0000 0.53300  0.42040  0.11900  Biso   1.000  O
  N39      1.0000 0.70250  0.31370  0.94590  Biso   1.000  N
  C214     1.0000 0.73790  0.34830  0.96190  Biso   1.000  C
  H300     1.0000 0.72150  0.37550  0.95800  Biso   1.000  H
  H301     1.0000 0.76870  0.34500  0.01240  Biso   1.000  H
  H302     1.0000 0.74730  0.34760  0.92590  Biso   1.000  H
  C215     1.0000 0.70240  0.28120  0.89720  Biso   1.000  C
  H303     1.0000 0.73020  0.26100  0.92740  Biso   1.000  H
  H304     1.0000 0.66960  0.26610  0.87080  Biso   1.000  H
  H305     1.0000 0.70720  0.29490  0.86110  Biso   1.000  H
  C216     1.0000 0.67230  0.31170  0.97190  Biso   1.000  C
  H306     1.0000 0.65100  0.28770  0.96090  Biso   1.000  H
  O42      1.0000 0.67220  0.34040  0.00900  Biso   1.000  O
  Zn7      1.0000 0.21401  0.06040  0.23805  Biso   1.000  Zn
  Zn8      1.0000 0.28176  0.99628  0.23802  Biso   1.000  Zn
  C217     1.0000 0.10877  0.16453  0.24180  Biso   1.000  C
  C218     1.0000 0.09170  0.20028  0.19500  Biso   1.000  C
  H307     1.0000 0.10090  0.20360  0.16050  Biso   1.000  H
  C219     1.0000 0.06130  0.23110  0.19840  Biso   1.000  C
  H308     1.0000 0.05010  0.25470  0.16560  Biso   1.000  H
  N40      1.0000 0.04722  0.22856  0.24660  Biso   1.000  N
  C220     1.0000 0.06280  0.19442  0.29070  Biso   1.000  C
  H309     1.0000 0.05270  0.19190  0.32430  Biso   1.000  H
  C221     1.0000 0.09290  0.16238  0.29040  Biso   1.000  C
  H310     1.0000 0.10270  0.13890  0.32320  Biso   1.000  H
  B7       1.0000 0.14390  0.12844  0.23940  Biso   1.000  B
  O43      1.0000 0.19330  0.14961  0.26590  Biso   1.000  O
  N41      1.0000 0.22868  0.12598  0.25990  Biso   1.000  N
  C222     1.0000 0.26390  0.14928  0.26610  Biso   1.000  C
  H311     1.0000 0.26240  0.17880  0.27390  Biso   1.000  H
  C223     1.0000 0.30660  0.13503  0.26260  Biso   1.000  C
  C224     1.0000 0.31760  0.09131  0.26020  Biso   1.000  C
  C225     1.0000 0.36110  0.08250  0.25770  Biso   1.000  C
  C226     1.0000 0.38960  0.11594  0.25640  Biso   1.000  C
  H312     1.0000 0.41820  0.10910  0.25470  Biso   1.000  H
  C227     1.0000 0.37870  0.15849  0.25730  Biso   1.000  C
  C228     1.0000 0.33710  0.16665  0.26090  Biso   1.000  C
  H313     1.0000 0.32870  0.19550  0.26230  Biso   1.000  H
  C229     1.0000 0.37560  0.03936  0.25240  Biso   1.000  C
  H314     1.0000 0.40550  0.03640  0.25260  Biso   1.000  H
  N42      1.0000 0.35210  0.00500  0.24750  Biso   1.000  N
  O44      1.0000 0.37650  0.96897  0.24290  Biso   1.000  O
  B8       1.0000 0.35200  0.92830  0.23720  Biso   1.000  B
  O45      1.0000 0.14880  0.09439  0.28900  Biso   1.000  O
  N43      1.0000 0.18220  0.06104  0.30250  Biso   1.000  N
  C230     1.0000 0.18490  0.03396  0.34860  Biso   1.000  C
  H315     1.0000 0.16550  0.03980  0.36870  Biso   1.000  H
  C231     1.0000 0.21490  0.99514  0.37260  Biso   1.000  C
  C232     1.0000 0.24630  0.98237  0.34770  Biso   1.000  C
  C233     1.0000 0.27430  0.94413  0.37730  Biso   1.000  C
  C234     1.0000 0.27040  0.92000  0.42820  Biso   1.000  C
  H316     1.0000 0.28970  0.89460  0.44730  Biso   1.000  H
  C235     1.0000 0.23930  0.93170  0.45200  Biso   1.000  C
  C236     1.0000 0.21230  0.96960  0.42300  Biso   1.000  C
  H317     1.0000 0.19090  0.97850  0.43840  Biso   1.000  H
  C237     1.0000 0.30900  0.92730  0.35810  Biso   1.000  C
  H318     1.0000 0.32770  0.90240  0.38340  Biso   1.000  H
  N44      1.0000 0.31600  0.94333  0.31040  Biso   1.000  N
  O46      1.0000 0.35110  0.91916  0.30450  Biso   1.000  O
  O47      1.0000 0.11675  0.11345  0.16120  Biso   1.000  O
  N45      1.0000 0.13834  0.07782  0.14990  Biso   1.000  N
  C238     1.0000 0.10710  0.05960  0.08790  Biso   1.000  C
  H319     1.0000 0.07350  0.07110  0.05800  Biso   1.000  H
  C239     1.0000 0.11820  0.02270  0.05890  Biso   1.000  C
  C240     1.0000 0.16710  0.00250  0.09680  Biso   1.000  C
  C241     1.0000 0.17190  0.96690  0.06060  Biso   1.000  C
  C242     1.0000 0.13000  0.95900  0.98560  Biso   1.000  C
  H320     1.0000 0.13460  0.93710  0.95980  Biso   1.000  H
  C243     1.0000 0.08300  0.98000  0.94630  Biso   1.000  C
  C244     1.0000 0.03670  0.96860  0.86780  Biso   1.000  C
  C245     1.0000 0.04680  0.92600  0.84250  Biso   1.000  C
  H321     1.0000 0.05760  0.90450  0.88130  Biso   1.000  H
  H322     1.0000 0.07380  0.93000  0.83400  Biso   1.000  H
  H323     1.0000 0.01540  0.91660  0.79620  Biso   1.000  H
  C246     1.0000 0.98960  0.96320  0.86970  Biso   1.000  C
  H324     1.0000 0.98550  0.98830  0.89250  Biso   1.000  H
  H325     1.0000 0.99380  0.93790  0.89910  Biso   1.000  H
  H326     1.0000 0.95930  0.95980  0.81870  Biso   1.000  H
  C247     1.0000 0.02510  0.00420  0.81220  Biso   1.000  C
  H327     1.0000 0.05340  0.00660  0.80600  Biso   1.000  H
  H328     1.0000 0.02120  0.03110  0.83110  Biso   1.000  H
  H329     1.0000 0.99350  0.99770  0.76410  Biso   1.000  H
  C248     1.0000 0.07960  0.01420  0.98410  Biso   1.000  C
  H330     1.0000 0.05040  0.03210  0.95860  Biso   1.000  H
  C249     1.0000 0.21990  0.94340  0.09260  Biso   1.000  C
  H331     1.0000 0.21890  0.91920  0.06560  Biso   1.000  H
  N46      1.0000 0.26274  0.95182  0.15280  Biso   1.000  N
  O48      1.0000 0.30130  0.92304  0.16690  Biso   1.000  O
  C250     1.0000 0.38790  0.89117  0.23920  Biso   1.000  C
  C251     1.0000 0.36870  0.85624  0.19160  Biso   1.000  C
  H332     1.0000 0.33310  0.85430  0.15420  Biso   1.000  H
  C252     1.0000 0.40120  0.82412  0.19820  Biso   1.000  C
  H333     1.0000 0.38660  0.80040  0.16560  Biso   1.000  H
  N47      1.0000 0.45217  0.82476  0.24840  Biso   1.000  N
  C253     1.0000 0.47120  0.85823  0.29380  Biso   1.000  C
  H334     1.0000 0.50710  0.85960  0.32970  Biso   1.000  H
  C254     1.0000 0.44100  0.89141  0.29130  Biso   1.000  C
  H335     1.0000 0.45660  0.91440  0.32520  Biso   1.000  H
  O49      1.0000 0.28905  0.06107  0.26080  Biso   1.000  O
  C255     1.0000 0.41100  0.19320  0.25210  Biso   1.000  C
  C256     1.0000 0.39380  0.23710  0.25690  Biso   1.000  C
  H336     1.0000 0.41580  0.25840  0.25550  Biso   1.000  H
  H337     1.0000 0.39600  0.23980  0.30370  Biso   1.000  H
  H338     1.0000 0.35830  0.24150  0.21470  Biso   1.000  H
  C257     1.0000 0.46710  0.18780  0.31680  Biso   1.000  C
  H339     1.0000 0.47550  0.20820  0.35620  Biso   1.000  H
  H340     1.0000 0.48900  0.19290  0.29890  Biso   1.000  H
  H341     1.0000 0.47260  0.15890  0.33660  Biso   1.000  H
  C258     1.0000 0.40820  0.18750  0.18090  Biso   1.000  C
  H342     1.0000 0.42690  0.16180  0.18440  Biso   1.000  H
  H343     1.0000 0.42360  0.21220  0.17320  Biso   1.000  H
  H344     1.0000 0.37240  0.18490  0.13880  Biso   1.000  H
  O50      1.0000 0.24906  0.00489  0.30010  Biso   1.000  O
  O51      1.0000 0.20647  0.01790  0.15830  Biso   1.000  O
  C259     1.0000 0.22760  0.89750  0.49430  Biso   1.000  C
  C260     1.0000 0.21410  0.91920  0.54160  Biso   1.000  C
  H345     1.0000 0.23630  0.94400  0.56550  Biso   1.000  H
  H346     1.0000 0.21880  0.89950  0.58000  Biso   1.000  H
  H347     1.0000 0.17830  0.92840  0.51060  Biso   1.000  H
  C261     1.0000 0.19730  0.85630  0.45170  Biso   1.000  C
  H348     1.0000 0.19330  0.83830  0.48490  Biso   1.000  H
  H349     1.0000 0.21610  0.84070  0.43540  Biso   1.000  H
  H350     1.0000 0.16350  0.86410  0.40810  Biso   1.000  H
  C262     1.0000 0.28750  0.87860  0.56520  Biso   1.000  C
  H351     1.0000 0.28360  0.85800  0.59560  Biso   1.000  H
  H352     1.0000 0.30880  0.90230  0.59650  Biso   1.000  H
  H353     1.0000 0.30380  0.86460  0.54330  Biso   1.000  H
  N48      1.0000 0.06350  0.82410  0.02390  Biso   1.000  N
  O52      1.0000 0.11410  0.83620  0.98060  Biso   1.000  O
  C263     1.0000 0.01730  0.83840  0.95550  Biso   1.000  C
  H354     1.0000 0.00100  0.86060  0.96700  Biso   1.000  H
  H355     1.0000 0.99370  0.81440  0.93140  Biso   1.000  H
  H356     1.0000 0.02590  0.84990  0.92190  Biso   1.000  H
  C264     1.0000 0.06590  0.81140  0.09040  Biso   1.000  C
  H357     1.0000 0.09830  0.82090  0.13490  Biso   1.000  H
  H358     1.0000 0.06350  0.78040  0.09140  Biso   1.000  H
  H359     1.0000 0.03740  0.82440  0.08950  Biso   1.000  H
  C265     1.0000 0.10990  0.82380  0.02880  Biso   1.000  C
  H360     1.0000 0.13950  0.81310  0.07310  Biso   1.000  H
  N49      1.0000 0.11200  0.92610  0.16500  Biso   1.000  N
  C266     1.0000 0.10840  0.93590  0.22670  Biso   1.000  C
  H361     1.0000 0.14160  0.93080  0.27370  Biso   1.000  H
  H362     1.0000 0.08240  0.91780  0.22460  Biso   1.000  H
  H363     1.0000 0.09890  0.96580  0.22400  Biso   1.000  H
  C267     1.0000 0.16130  0.91120  0.18500  Biso   1.000  C
  H364     1.0000 0.17810  0.89570  0.23230  Biso   1.000  H
  H365     1.0000 0.18240  0.93550  0.19030  Biso   1.000  H
  H366     1.0000 0.15680  0.89220  0.14590  Biso   1.000  H
  C268     1.0000 0.07060  0.92680  0.08950  Biso   1.000  C
  H367     1.0000 0.07870  0.92070  0.05450  Biso   1.000  H
  O53      1.0000 0.02690  0.93410  0.06410  Biso   1.000  O
  C269     1.0000 0.24070  0.91100  0.51720  Biso   1.000  C
  C270     1.0000 0.26550  0.94240  0.58440  Biso   1.000  C
  H368     1.0000 0.29940  0.95090  0.59730  Biso   1.000  H
  H369     1.0000 0.26890  0.92850  0.62730  Biso   1.000  H
  H370     1.0000 0.24390  0.96770  0.57080  Biso   1.000  H
  C271     1.0000 0.18540  0.90040  0.49020  Biso   1.000  C
  H371     1.0000 0.18290  0.89900  0.53310  Biso   1.000  H
  H372     1.0000 0.17560  0.87300  0.46440  Biso   1.000  H
  H373     1.0000 0.16240  0.92260  0.45590  Biso   1.000  H
  C272     1.0000 0.26980  0.86920  0.54010  Biso   1.000  C
  H374     1.0000 0.27000  0.85690  0.58180  Biso   1.000  H
  H375     1.0000 0.30500  0.87430  0.55560  Biso   1.000  H
  H376     1.0000 0.25310  0.84950  0.49790  Biso   1.000  H
  C273     1.0000 0.12920  0.94010  0.01290  Biso   1.000  C
  H377     1.0000 0.13440  0.91200  0.00260  Biso   1.000  H
  C274     1.0000 0.04290  0.90360  0.87090  Biso   1.000  C
  H378     1.0000 0.06420  0.87870  0.89710  Biso   1.000  H
  H379     1.0000 0.06080  0.92230  0.85650  Biso   1.000  H
  H380     1.0000 0.01040  0.89450  0.82620  Biso   1.000  H
  C275     1.0000 0.98530  0.95450  0.87450  Biso   1.000  C
  H381     1.0000 0.98410  0.96510  0.83110  Biso   1.000  H
  H382     1.0000 0.98620  0.97850  0.90390  Biso   1.000  H
  H383     1.0000 0.95490  0.93710  0.85760  Biso   1.000  H
  C276     1.0000 0.02190  0.89460  0.96150  Biso   1.000  C
  H384     1.0000 0.99540  0.90520  0.96780  Biso   1.000  H
  H385     1.0000 0.05310  0.88870  0.01060  Biso   1.000  H
  H386     1.0000 0.01000  0.86850  0.93190  Biso   1.000  H
  C277     1.0000 0.08050  0.95500  0.98200  Biso   1.000  C
  C278     1.0000 0.03280  0.92770  0.92210  Biso   1.000  C
  C279     1.0000 0.07550  0.99440  0.00720  Biso   1.000  C
  H387     1.0000 0.04190  0.00370  0.98960  Biso   1.000  H
  N50      1.0000 0.23070  0.80870  0.95290  Biso   1.000  N
  C280     1.0000 0.27410  0.80360  0.94810  Biso   1.000  C
  H388     1.0000 0.26450  0.78560  0.90520  Biso   1.000  H
  H389     1.0000 0.30220  0.79020  0.99380  Biso   1.000  H
  H390     1.0000 0.28510  0.83150  0.94210  Biso   1.000  H
  C281     1.0000 0.22250  0.85170  0.96910  Biso   1.000  C
  H391     1.0000 0.21050  0.85050  0.00200  Biso   1.000  H
  H392     1.0000 0.19680  0.86600  0.92260  Biso   1.000  H
  H393     1.0000 0.25470  0.86760  0.99380  Biso   1.000  H
  C282     1.0000 0.19530  0.77830  0.94110  Biso   1.000  C
  H394     1.0000 0.17010  0.78800  0.94860  Biso   1.000  H
  O54      1.0000 0.19110  0.74200  0.92310  Biso   1.000  O
  N51      1.0000 0.11810  0.89640  0.19000  Biso   1.000  N
  C283     1.0000 0.10780  0.85190  0.16700  Biso   1.000  C
  H395     1.0000 0.13900  0.83850  0.17700  Biso   1.000  H
  H396     1.0000 0.08090  0.85030  0.11370  Biso   1.000  H
  H397     1.0000 0.09660  0.83710  0.19520  Biso   1.000  H
  C284     1.0000 0.17060  0.90890  0.24400  Biso   1.000  C
  H398     1.0000 0.19350  0.88630  0.24830  Biso   1.000  H
  H399     1.0000 0.17600  0.91390  0.29210  Biso   1.000  H
  H400     1.0000 0.17790  0.93510  0.22670  Biso   1.000  H
  C285     1.0000 0.07990  0.92820  0.16300  Biso   1.000  C
  H401     1.0000 0.09030  0.95670  0.17840  Biso   1.000  H
  O55      1.0000 0.03300  0.92040  0.11900  Biso   1.000  O
  N52      1.0000 0.20250  0.81370  0.94590  Biso   1.000  N
  C286     1.0000 0.23790  0.84830  0.96190  Biso   1.000  C
  H402     1.0000 0.22150  0.87550  0.95800  Biso   1.000  H
  H403     1.0000 0.26870  0.84500  0.01240  Biso   1.000  H
  H404     1.0000 0.24730  0.84760  0.92590  Biso   1.000  H
  C287     1.0000 0.20240  0.78120  0.89720  Biso   1.000  C
  H405     1.0000 0.23020  0.76100  0.92740  Biso   1.000  H
  H406     1.0000 0.16960  0.76610  0.87080  Biso   1.000  H
  H407     1.0000 0.20720  0.79490  0.86110  Biso   1.000  H
  C288     1.0000 0.17230  0.81170  0.97190  Biso   1.000  C
  H408     1.0000 0.15100  0.78770  0.96090  Biso   1.000  H
  O56      1.0000 0.17220  0.84040  0.00900  Biso   1.000  O
  Zn9      1.0000 0.50000  0.77571  0.25000  Biso   1.000  Zn
  Zn10     1.0000 0.00000  0.27571  0.25000  Biso   1.000  Zn
  Zn11     1.0000 0.71401  0.43960  0.73805  Biso   1.000  Zn
  Zn12     1.0000 0.78176  0.50372  0.73802  Biso   1.000  Zn
  C289     1.0000 0.60877  0.33547  0.74180  Biso   1.000  C
  C290     1.0000 0.59170  0.29972  0.69500  Biso   1.000  C
  H409     1.0000 0.60090  0.29640  0.66050  Biso   1.000  H
  C291     1.0000 0.56130  0.26890  0.69840  Biso   1.000  C
  H410     1.0000 0.55010  0.24530  0.66560  Biso   1.000  H
  N53      1.0000 0.54722  0.27144  0.74660  Biso   1.000  N
  C292     1.0000 0.56280  0.30558  0.79070  Biso   1.000  C
  H411     1.0000 0.55270  0.30810  0.82430  Biso   1.000  H
  C293     1.0000 0.59290  0.33762  0.79040  Biso   1.000  C
  H412     1.0000 0.60270  0.36110  0.82320  Biso   1.000  H
  B9       1.0000 0.64390  0.37156  0.73940  Biso   1.000  B
  O57      1.0000 0.69330  0.35039  0.76590  Biso   1.000  O
  N54      1.0000 0.72868  0.37402  0.75990  Biso   1.000  N
  C294     1.0000 0.76390  0.35072  0.76610  Biso   1.000  C
  H413     1.0000 0.76240  0.32120  0.77390  Biso   1.000  H
  C295     1.0000 0.80660  0.36497  0.76260  Biso   1.000  C
  C296     1.0000 0.81760  0.40869  0.76020  Biso   1.000  C
  C297     1.0000 0.86110  0.41750  0.75770  Biso   1.000  C
  C298     1.0000 0.88960  0.38406  0.75640  Biso   1.000  C
  H414     1.0000 0.91820  0.39090  0.75470  Biso   1.000  H
  C299     1.0000 0.87870  0.34151  0.75730  Biso   1.000  C
  C300     1.0000 0.83710  0.33335  0.76090  Biso   1.000  C
  H415     1.0000 0.82870  0.30450  0.76230  Biso   1.000  H
  C301     1.0000 0.87560  0.46064  0.75240  Biso   1.000  C
  H416     1.0000 0.90550  0.46360  0.75260  Biso   1.000  H
  N55      1.0000 0.85210  0.49500  0.74750  Biso   1.000  N
  O58      1.0000 0.87650  0.53103  0.74290  Biso   1.000  O
  B10      1.0000 0.85200  0.57170  0.73720  Biso   1.000  B
  O59      1.0000 0.64880  0.40561  0.78900  Biso   1.000  O
  N56      1.0000 0.68220  0.43896  0.80250  Biso   1.000  N
  C302     1.0000 0.68490  0.46604  0.84860  Biso   1.000  C
  H417     1.0000 0.66550  0.46020  0.86870  Biso   1.000  H
  C303     1.0000 0.71490  0.50486  0.87260  Biso   1.000  C
  C304     1.0000 0.74630  0.51763  0.84770  Biso   1.000  C
  C305     1.0000 0.77430  0.55587  0.87730  Biso   1.000  C
  C306     1.0000 0.77040  0.58000  0.92820  Biso   1.000  C
  H418     1.0000 0.78970  0.60540  0.94730  Biso   1.000  H
  C307     1.0000 0.73930  0.56830  0.95200  Biso   1.000  C
  C308     1.0000 0.71230  0.53040  0.92300  Biso   1.000  C
  H419     1.0000 0.69090  0.52150  0.93840  Biso   1.000  H
  C309     1.0000 0.80900  0.57270  0.85810  Biso   1.000  C
  H420     1.0000 0.82770  0.59760  0.88340  Biso   1.000  H
  N57      1.0000 0.81600  0.55667  0.81040  Biso   1.000  N
  O60      1.0000 0.85110  0.58084  0.80450  Biso   1.000  O
  O61      1.0000 0.61675  0.38655  0.66120  Biso   1.000  O
  N58      1.0000 0.63834  0.42218  0.64990  Biso   1.000  N
  C310     1.0000 0.60710  0.44040  0.58790  Biso   1.000  C
  H421     1.0000 0.57350  0.42890  0.55800  Biso   1.000  H
  C311     1.0000 0.61820  0.47730  0.55890  Biso   1.000  C
  C312     1.0000 0.66710  0.49750  0.59680  Biso   1.000  C
  C313     1.0000 0.67190  0.53310  0.56060  Biso   1.000  C
  C314     1.0000 0.63000  0.54100  0.48560  Biso   1.000  C
  H422     1.0000 0.63460  0.56290  0.45980  Biso   1.000  H
  C315     1.0000 0.58300  0.52000  0.44630  Biso   1.000  C
  C316     1.0000 0.53670  0.53140  0.36780  Biso   1.000  C
  C317     1.0000 0.54680  0.57400  0.34250  Biso   1.000  C
  H423     1.0000 0.55760  0.59550  0.38130  Biso   1.000  H
  H424     1.0000 0.57380  0.57000  0.33400  Biso   1.000  H
  H425     1.0000 0.51540  0.58340  0.29620  Biso   1.000  H
  C318     1.0000 0.48960  0.53680  0.36970  Biso   1.000  C
  H426     1.0000 0.48550  0.51170  0.39250  Biso   1.000  H
  H427     1.0000 0.49380  0.56210  0.39910  Biso   1.000  H
  H428     1.0000 0.45930  0.54020  0.31870  Biso   1.000  H
  C319     1.0000 0.52510  0.49580  0.31220  Biso   1.000  C
  H429     1.0000 0.55340  0.49340  0.30600  Biso   1.000  H
  H430     1.0000 0.52120  0.46890  0.33110  Biso   1.000  H
  H431     1.0000 0.49350  0.50230  0.26410  Biso   1.000  H
  C320     1.0000 0.57960  0.48580  0.48410  Biso   1.000  C
  H432     1.0000 0.55040  0.46790  0.45860  Biso   1.000  H
  C321     1.0000 0.71990  0.55660  0.59260  Biso   1.000  C
  H433     1.0000 0.71890  0.58080  0.56560  Biso   1.000  H
  N59      1.0000 0.76274  0.54818  0.65280  Biso   1.000  N
  O62      1.0000 0.80130  0.57696  0.66690  Biso   1.000  O
  C322     1.0000 0.88790  0.60883  0.73920  Biso   1.000  C
  C323     1.0000 0.86870  0.64376  0.69160  Biso   1.000  C
  H434     1.0000 0.83310  0.64570  0.65420  Biso   1.000  H
  C324     1.0000 0.90120  0.67588  0.69820  Biso   1.000  C
  H435     1.0000 0.88660  0.69960  0.66560  Biso   1.000  H
  N60      1.0000 0.95217  0.67524  0.74840  Biso   1.000  N
  C325     1.0000 0.97120  0.64177  0.79380  Biso   1.000  C
  H436     1.0000 0.00710  0.64040  0.82970  Biso   1.000  H
  C326     1.0000 0.94100  0.60859  0.79130  Biso   1.000  C
  H437     1.0000 0.95660  0.58560  0.82520  Biso   1.000  H
  O63      1.0000 0.78905  0.43893  0.76080  Biso   1.000  O
  C327     1.0000 0.91100  0.30680  0.75210  Biso   1.000  C
  C328     1.0000 0.89380  0.26290  0.75690  Biso   1.000  C
  H438     1.0000 0.91580  0.24160  0.75550  Biso   1.000  H
  H439     1.0000 0.89600  0.26020  0.80370  Biso   1.000  H
  H440     1.0000 0.85830  0.25850  0.71470  Biso   1.000  H
  C329     1.0000 0.96710  0.31220  0.81680  Biso   1.000  C
  H441     1.0000 0.97550  0.29180  0.85620  Biso   1.000  H
  H442     1.0000 0.98900  0.30710  0.79890  Biso   1.000  H
  H443     1.0000 0.97260  0.34110  0.83660  Biso   1.000  H
  C330     1.0000 0.90820  0.31250  0.68090  Biso   1.000  C
  H444     1.0000 0.92690  0.33820  0.68440  Biso   1.000  H
  H445     1.0000 0.92360  0.28780  0.67320  Biso   1.000  H
  H446     1.0000 0.87240  0.31510  0.63880  Biso   1.000  H
  O64      1.0000 0.74906  0.49511  0.80010  Biso   1.000  O
  O65      1.0000 0.70647  0.48210  0.65830  Biso   1.000  O
  C331     1.0000 0.72760  0.60250  0.99430  Biso   1.000  C
  C332     1.0000 0.71410  0.58080  0.04160  Biso   1.000  C
  H447     1.0000 0.73630  0.55600  0.06550  Biso   1.000  H
  H448     1.0000 0.71880  0.60050  0.08000  Biso   1.000  H
  H449     1.0000 0.67830  0.57160  0.01060  Biso   1.000  H
  C333     1.0000 0.69730  0.64370  0.95170  Biso   1.000  C
  H450     1.0000 0.69330  0.66170  0.98490  Biso   1.000  H
  H451     1.0000 0.71610  0.65930  0.93540  Biso   1.000  H
  H452     1.0000 0.66350  0.63590  0.90810  Biso   1.000  H
  C334     1.0000 0.78750  0.62140  0.06520  Biso   1.000  C
  H453     1.0000 0.78360  0.64200  0.09560  Biso   1.000  H
  H454     1.0000 0.80880  0.59770  0.09650  Biso   1.000  H
  H455     1.0000 0.80380  0.63540  0.04330  Biso   1.000  H
  N61      1.0000 0.56350  0.67590  0.52390  Biso   1.000  N
  O66      1.0000 0.61410  0.66380  0.48060  Biso   1.000  O
  C335     1.0000 0.51730  0.66160  0.45550  Biso   1.000  C
  H456     1.0000 0.50100  0.63940  0.46700  Biso   1.000  H
  H457     1.0000 0.49370  0.68560  0.43140  Biso   1.000  H
  H458     1.0000 0.52590  0.65010  0.42190  Biso   1.000  H
  C336     1.0000 0.56590  0.68860  0.59040  Biso   1.000  C
  H459     1.0000 0.59830  0.67910  0.63490  Biso   1.000  H
  H460     1.0000 0.56350  0.71960  0.59140  Biso   1.000  H
  H461     1.0000 0.53740  0.67560  0.58950  Biso   1.000  H
  C337     1.0000 0.60990  0.67620  0.52880  Biso   1.000  C
  H462     1.0000 0.63950  0.68690  0.57310  Biso   1.000  H
  N62      1.0000 0.61200  0.57390  0.66500  Biso   1.000  N
  C338     1.0000 0.60840  0.56410  0.72670  Biso   1.000  C
  H463     1.0000 0.64160  0.56920  0.77370  Biso   1.000  H
  H464     1.0000 0.58240  0.58220  0.72460  Biso   1.000  H
  H465     1.0000 0.59890  0.53420  0.72400  Biso   1.000  H
  C339     1.0000 0.66130  0.58880  0.68500  Biso   1.000  C
  H466     1.0000 0.67810  0.60430  0.73230  Biso   1.000  H
  H467     1.0000 0.68240  0.56450  0.69030  Biso   1.000  H
  H468     1.0000 0.65680  0.60780  0.64590  Biso   1.000  H
  C340     1.0000 0.57060  0.57320  0.58950  Biso   1.000  C
  H469     1.0000 0.57870  0.57930  0.55450  Biso   1.000  H
  O67      1.0000 0.52690  0.56590  0.56410  Biso   1.000  O
  C341     1.0000 0.74070  0.58900  0.01720  Biso   1.000  C
  C342     1.0000 0.76550  0.55760  0.08440  Biso   1.000  C
  H470     1.0000 0.79940  0.54910  0.09730  Biso   1.000  H
  H471     1.0000 0.76890  0.57150  0.12730  Biso   1.000  H
  H472     1.0000 0.74390  0.53230  0.07080  Biso   1.000  H
  C343     1.0000 0.68540  0.59960  0.99020  Biso   1.000  C
  H473     1.0000 0.68290  0.60100  0.03310  Biso   1.000  H
  H474     1.0000 0.67560  0.62700  0.96440  Biso   1.000  H
  H475     1.0000 0.66240  0.57740  0.95590  Biso   1.000  H
  C344     1.0000 0.76980  0.63080  0.04010  Biso   1.000  C
  H476     1.0000 0.77000  0.64310  0.08180  Biso   1.000  H
  H477     1.0000 0.80500  0.62570  0.05560  Biso   1.000  H
  H478     1.0000 0.75310  0.65050  0.99790  Biso   1.000  H
  C345     1.0000 0.62920  0.55990  0.51290  Biso   1.000  C
  H479     1.0000 0.63440  0.58800  0.50260  Biso   1.000  H
  C346     1.0000 0.54290  0.59640  0.37090  Biso   1.000  C
  H480     1.0000 0.56420  0.62130  0.39710  Biso   1.000  H
  H481     1.0000 0.56080  0.57770  0.35650  Biso   1.000  H
  H482     1.0000 0.51040  0.60550  0.32620  Biso   1.000  H
  C347     1.0000 0.48530  0.54550  0.37450  Biso   1.000  C
  H483     1.0000 0.48410  0.53490  0.33110  Biso   1.000  H
  H484     1.0000 0.48620  0.52150  0.40390  Biso   1.000  H
  H485     1.0000 0.45490  0.56290  0.35760  Biso   1.000  H
  C348     1.0000 0.52190  0.60540  0.46150  Biso   1.000  C
  H486     1.0000 0.49540  0.59480  0.46780  Biso   1.000  H
  H487     1.0000 0.55310  0.61130  0.51060  Biso   1.000  H
  H488     1.0000 0.51000  0.63150  0.43190  Biso   1.000  H
  C349     1.0000 0.58050  0.54500  0.48200  Biso   1.000  C
  C350     1.0000 0.53280  0.57230  0.42210  Biso   1.000  C
  C351     1.0000 0.57550  0.50560  0.50720  Biso   1.000  C
  H489     1.0000 0.54190  0.49630  0.48960  Biso   1.000  H
  N63      1.0000 0.73070  0.69130  0.45290  Biso   1.000  N
  C352     1.0000 0.77410  0.69640  0.44810  Biso   1.000  C
  H490     1.0000 0.76450  0.71440  0.40520  Biso   1.000  H
  H491     1.0000 0.80220  0.70980  0.49380  Biso   1.000  H
  H492     1.0000 0.78510  0.66850  0.44210  Biso   1.000  H
  C353     1.0000 0.72250  0.64830  0.46910  Biso   1.000  C
  H493     1.0000 0.71050  0.64950  0.50200  Biso   1.000  H
  H494     1.0000 0.69680  0.63400  0.42260  Biso   1.000  H
  H495     1.0000 0.75470  0.63240  0.49380  Biso   1.000  H
  C354     1.0000 0.69530  0.72170  0.44110  Biso   1.000  C
  H496     1.0000 0.67010  0.71200  0.44860  Biso   1.000  H
  O68      1.0000 0.69110  0.75800  0.42310  Biso   1.000  O
  N64      1.0000 0.61810  0.60360  0.69000  Biso   1.000  N
  C355     1.0000 0.60780  0.64810  0.66700  Biso   1.000  C
  H497     1.0000 0.63900  0.66150  0.67700  Biso   1.000  H
  H498     1.0000 0.58090  0.64970  0.61370  Biso   1.000  H
  H499     1.0000 0.59660  0.66290  0.69520  Biso   1.000  H
  C356     1.0000 0.67060  0.59110  0.74400  Biso   1.000  C
  H500     1.0000 0.69350  0.61370  0.74830  Biso   1.000  H
  H501     1.0000 0.67600  0.58610  0.79210  Biso   1.000  H
  H502     1.0000 0.67790  0.56490  0.72670  Biso   1.000  H
  C357     1.0000 0.57990  0.57180  0.66300  Biso   1.000  C
  H503     1.0000 0.59030  0.54330  0.67840  Biso   1.000  H
  O69      1.0000 0.53300  0.57960  0.61900  Biso   1.000  O
  N65      1.0000 0.70250  0.68630  0.44590  Biso   1.000  N
  C358     1.0000 0.73790  0.65170  0.46190  Biso   1.000  C
  H504     1.0000 0.72150  0.62450  0.45800  Biso   1.000  H
  H505     1.0000 0.76870  0.65500  0.51240  Biso   1.000  H
  H506     1.0000 0.74730  0.65240  0.42590  Biso   1.000  H
  C359     1.0000 0.70240  0.71880  0.39720  Biso   1.000  C
  H507     1.0000 0.73020  0.73900  0.42740  Biso   1.000  H
  H508     1.0000 0.66960  0.73390  0.37080  Biso   1.000  H
  H509     1.0000 0.70720  0.70510  0.36110  Biso   1.000  H
  C360     1.0000 0.67230  0.68830  0.47190  Biso   1.000  C
  H510     1.0000 0.65100  0.71230  0.46090  Biso   1.000  H
  O70      1.0000 0.67220  0.65960  0.50900  Biso   1.000  O
  Zn13     1.0000 0.21401  0.93960  0.73805  Biso   1.000  Zn
  Zn14     1.0000 0.28176  0.00372  0.73802  Biso   1.000  Zn
  C361     1.0000 0.10877  0.83547  0.74180  Biso   1.000  C
  C362     1.0000 0.09170  0.79972  0.69500  Biso   1.000  C
  H511     1.0000 0.10090  0.79640  0.66050  Biso   1.000  H
  C363     1.0000 0.06130  0.76890  0.69840  Biso   1.000  C
  H512     1.0000 0.05010  0.74530  0.66560  Biso   1.000  H
  N66      1.0000 0.04722  0.77144  0.74660  Biso   1.000  N
  C364     1.0000 0.06280  0.80558  0.79070  Biso   1.000  C
  H513     1.0000 0.05270  0.80810  0.82430  Biso   1.000  H
  C365     1.0000 0.09290  0.83762  0.79040  Biso   1.000  C
  H514     1.0000 0.10270  0.86110  0.82320  Biso   1.000  H
  B11      1.0000 0.14390  0.87156  0.73940  Biso   1.000  B
  O71      1.0000 0.19330  0.85039  0.76590  Biso   1.000  O
  N67      1.0000 0.22868  0.87402  0.75990  Biso   1.000  N
  C366     1.0000 0.26390  0.85072  0.76610  Biso   1.000  C
  H515     1.0000 0.26240  0.82120  0.77390  Biso   1.000  H
  C367     1.0000 0.30660  0.86497  0.76260  Biso   1.000  C
  C368     1.0000 0.31760  0.90869  0.76020  Biso   1.000  C
  C369     1.0000 0.36110  0.91750  0.75770  Biso   1.000  C
  C370     1.0000 0.38960  0.88406  0.75640  Biso   1.000  C
  H516     1.0000 0.41820  0.89090  0.75470  Biso   1.000  H
  C371     1.0000 0.37870  0.84151  0.75730  Biso   1.000  C
  C372     1.0000 0.33710  0.83335  0.76090  Biso   1.000  C
  H517     1.0000 0.32870  0.80450  0.76230  Biso   1.000  H
  C373     1.0000 0.37560  0.96064  0.75240  Biso   1.000  C
  H518     1.0000 0.40550  0.96360  0.75260  Biso   1.000  H
  N68      1.0000 0.35210  0.99500  0.74750  Biso   1.000  N
  O72      1.0000 0.37650  0.03103  0.74290  Biso   1.000  O
  B12      1.0000 0.35200  0.07170  0.73720  Biso   1.000  B
  O73      1.0000 0.14880  0.90561  0.78900  Biso   1.000  O
  N69      1.0000 0.18220  0.93896  0.80250  Biso   1.000  N
  C374     1.0000 0.18490  0.96604  0.84860  Biso   1.000  C
  H519     1.0000 0.16550  0.96020  0.86870  Biso   1.000  H
  C375     1.0000 0.21490  0.00486  0.87260  Biso   1.000  C
  C376     1.0000 0.24630  0.01763  0.84770  Biso   1.000  C
  C377     1.0000 0.27430  0.05587  0.87730  Biso   1.000  C
  C378     1.0000 0.27040  0.08000  0.92820  Biso   1.000  C
  H520     1.0000 0.28970  0.10540  0.94730  Biso   1.000  H
  C379     1.0000 0.23930  0.06830  0.95200  Biso   1.000  C
  C380     1.0000 0.21230  0.03040  0.92300  Biso   1.000  C
  H521     1.0000 0.19090  0.02150  0.93840  Biso   1.000  H
  C381     1.0000 0.30900  0.07270  0.85810  Biso   1.000  C
  H522     1.0000 0.32770  0.09760  0.88340  Biso   1.000  H
  N70      1.0000 0.31600  0.05667  0.81040  Biso   1.000  N
  O74      1.0000 0.35110  0.08084  0.80450  Biso   1.000  O
  O75      1.0000 0.11675  0.88655  0.66120  Biso   1.000  O
  N71      1.0000 0.13834  0.92218  0.64990  Biso   1.000  N
  C382     1.0000 0.10710  0.94040  0.58790  Biso   1.000  C
  H523     1.0000 0.07350  0.92890  0.55800  Biso   1.000  H
  C383     1.0000 0.11820  0.97730  0.55890  Biso   1.000  C
  C384     1.0000 0.16710  0.99750  0.59680  Biso   1.000  C
  C385     1.0000 0.17190  0.03310  0.56060  Biso   1.000  C
  C386     1.0000 0.13000  0.04100  0.48560  Biso   1.000  C
  H524     1.0000 0.13460  0.06290  0.45980  Biso   1.000  H
  C387     1.0000 0.08300  0.02000  0.44630  Biso   1.000  C
  C388     1.0000 0.03670  0.03140  0.36780  Biso   1.000  C
  C389     1.0000 0.04680  0.07400  0.34250  Biso   1.000  C
  H525     1.0000 0.05760  0.09550  0.38130  Biso   1.000  H
  H526     1.0000 0.07380  0.07000  0.33400  Biso   1.000  H
  H527     1.0000 0.01540  0.08340  0.29620  Biso   1.000  H
  C390     1.0000 0.98960  0.03680  0.36970  Biso   1.000  C
  H528     1.0000 0.98550  0.01170  0.39250  Biso   1.000  H
  H529     1.0000 0.99380  0.06210  0.39910  Biso   1.000  H
  H530     1.0000 0.95930  0.04020  0.31870  Biso   1.000  H
  C391     1.0000 0.02510  0.99580  0.31220  Biso   1.000  C
  H531     1.0000 0.05340  0.99340  0.30600  Biso   1.000  H
  H532     1.0000 0.02120  0.96890  0.33110  Biso   1.000  H
  H533     1.0000 0.99350  0.00230  0.26410  Biso   1.000  H
  C392     1.0000 0.07960  0.98580  0.48410  Biso   1.000  C
  H534     1.0000 0.05040  0.96790  0.45860  Biso   1.000  H
  C393     1.0000 0.21990  0.05660  0.59260  Biso   1.000  C
  H535     1.0000 0.21890  0.08080  0.56560  Biso   1.000  H
  N72      1.0000 0.26274  0.04818  0.65280  Biso   1.000  N
  O76      1.0000 0.30130  0.07696  0.66690  Biso   1.000  O
  C394     1.0000 0.38790  0.10883  0.73920  Biso   1.000  C
  C395     1.0000 0.36870  0.14376  0.69160  Biso   1.000  C
  H536     1.0000 0.33310  0.14570  0.65420  Biso   1.000  H
  C396     1.0000 0.40120  0.17588  0.69820  Biso   1.000  C
  H537     1.0000 0.38660  0.19960  0.66560  Biso   1.000  H
  N73      1.0000 0.45217  0.17524  0.74840  Biso   1.000  N
  C397     1.0000 0.47120  0.14177  0.79380  Biso   1.000  C
  H538     1.0000 0.50710  0.14040  0.82970  Biso   1.000  H
  C398     1.0000 0.44100  0.10859  0.79130  Biso   1.000  C
  H539     1.0000 0.45660  0.08560  0.82520  Biso   1.000  H
  O77      1.0000 0.28905  0.93893  0.76080  Biso   1.000  O
  C399     1.0000 0.41100  0.80680  0.75210  Biso   1.000  C
  C400     1.0000 0.39380  0.76290  0.75690  Biso   1.000  C
  H540     1.0000 0.41580  0.74160  0.75550  Biso   1.000  H
  H541     1.0000 0.39600  0.76020  0.80370  Biso   1.000  H
  H542     1.0000 0.35830  0.75850  0.71470  Biso   1.000  H
  C401     1.0000 0.46710  0.81220  0.81680  Biso   1.000  C
  H543     1.0000 0.47550  0.79180  0.85620  Biso   1.000  H
  H544     1.0000 0.48900  0.80710  0.79890  Biso   1.000  H
  H545     1.0000 0.47260  0.84110  0.83660  Biso   1.000  H
  C402     1.0000 0.40820  0.81250  0.68090  Biso   1.000  C
  H546     1.0000 0.42690  0.83820  0.68440  Biso   1.000  H
  H547     1.0000 0.42360  0.78780  0.67320  Biso   1.000  H
  H548     1.0000 0.37240  0.81510  0.63880  Biso   1.000  H
  O78      1.0000 0.24906  0.99511  0.80010  Biso   1.000  O
  O79      1.0000 0.20647  0.98210  0.65830  Biso   1.000  O
  C403     1.0000 0.22760  0.10250  0.99430  Biso   1.000  C
  C404     1.0000 0.21410  0.08080  0.04160  Biso   1.000  C
  H549     1.0000 0.23630  0.05600  0.06550  Biso   1.000  H
  H550     1.0000 0.21880  0.10050  0.08000  Biso   1.000  H
  H551     1.0000 0.17830  0.07160  0.01060  Biso   1.000  H
  C405     1.0000 0.19730  0.14370  0.95170  Biso   1.000  C
  H552     1.0000 0.19330  0.16170  0.98490  Biso   1.000  H
  H553     1.0000 0.21610  0.15930  0.93540  Biso   1.000  H
  H554     1.0000 0.16350  0.13590  0.90810  Biso   1.000  H
  C406     1.0000 0.28750  0.12140  0.06520  Biso   1.000  C
  H555     1.0000 0.28360  0.14200  0.09560  Biso   1.000  H
  H556     1.0000 0.30880  0.09770  0.09650  Biso   1.000  H
  H557     1.0000 0.30380  0.13540  0.04330  Biso   1.000  H
  N74      1.0000 0.06350  0.17590  0.52390  Biso   1.000  N
  O80      1.0000 0.11410  0.16380  0.48060  Biso   1.000  O
  C407     1.0000 0.01730  0.16160  0.45550  Biso   1.000  C
  H558     1.0000 0.00100  0.13940  0.46700  Biso   1.000  H
  H559     1.0000 0.99370  0.18560  0.43140  Biso   1.000  H
  H560     1.0000 0.02590  0.15010  0.42190  Biso   1.000  H
  C408     1.0000 0.06590  0.18860  0.59040  Biso   1.000  C
  H561     1.0000 0.09830  0.17910  0.63490  Biso   1.000  H
  H562     1.0000 0.06350  0.21960  0.59140  Biso   1.000  H
  H563     1.0000 0.03740  0.17560  0.58950  Biso   1.000  H
  C409     1.0000 0.10990  0.17620  0.52880  Biso   1.000  C
  H564     1.0000 0.13950  0.18690  0.57310  Biso   1.000  H
  N75      1.0000 0.11200  0.07390  0.66500  Biso   1.000  N
  C410     1.0000 0.10840  0.06410  0.72670  Biso   1.000  C
  H565     1.0000 0.14160  0.06920  0.77370  Biso   1.000  H
  H566     1.0000 0.08240  0.08220  0.72460  Biso   1.000  H
  H567     1.0000 0.09890  0.03420  0.72400  Biso   1.000  H
  C411     1.0000 0.16130  0.08880  0.68500  Biso   1.000  C
  H568     1.0000 0.17810  0.10430  0.73230  Biso   1.000  H
  H569     1.0000 0.18240  0.06450  0.69030  Biso   1.000  H
  H570     1.0000 0.15680  0.10780  0.64590  Biso   1.000  H
  C412     1.0000 0.07060  0.07320  0.58950  Biso   1.000  C
  H571     1.0000 0.07870  0.07930  0.55450  Biso   1.000  H
  O81      1.0000 0.02690  0.06590  0.56410  Biso   1.000  O
  C413     1.0000 0.24070  0.08900  0.01720  Biso   1.000  C
  C414     1.0000 0.26550  0.05760  0.08440  Biso   1.000  C
  H572     1.0000 0.29940  0.04910  0.09730  Biso   1.000  H
  H573     1.0000 0.26890  0.07150  0.12730  Biso   1.000  H
  H574     1.0000 0.24390  0.03230  0.07080  Biso   1.000  H
  C415     1.0000 0.18540  0.09960  0.99020  Biso   1.000  C
  H575     1.0000 0.18290  0.10100  0.03310  Biso   1.000  H
  H576     1.0000 0.17560  0.12700  0.96440  Biso   1.000  H
  H577     1.0000 0.16240  0.07740  0.95590  Biso   1.000  H
  C416     1.0000 0.26980  0.13080  0.04010  Biso   1.000  C
  H578     1.0000 0.27000  0.14310  0.08180  Biso   1.000  H
  H579     1.0000 0.30500  0.12570  0.05560  Biso   1.000  H
  H580     1.0000 0.25310  0.15050  0.99790  Biso   1.000  H
  C417     1.0000 0.12920  0.05990  0.51290  Biso   1.000  C
  H581     1.0000 0.13440  0.08800  0.50260  Biso   1.000  H
  C418     1.0000 0.04290  0.09640  0.37090  Biso   1.000  C
  H582     1.0000 0.06420  0.12130  0.39710  Biso   1.000  H
  H583     1.0000 0.06080  0.07770  0.35650  Biso   1.000  H
  H584     1.0000 0.01040  0.10550  0.32620  Biso   1.000  H
  C419     1.0000 0.98530  0.04550  0.37450  Biso   1.000  C
  H585     1.0000 0.98410  0.03490  0.33110  Biso   1.000  H
  H586     1.0000 0.98620  0.02150  0.40390  Biso   1.000  H
  H587     1.0000 0.95490  0.06290  0.35760  Biso   1.000  H
  C420     1.0000 0.02190  0.10540  0.46150  Biso   1.000  C
  H588     1.0000 0.99540  0.09480  0.46780  Biso   1.000  H
  H589     1.0000 0.05310  0.11130  0.51060  Biso   1.000  H
  H590     1.0000 0.01000  0.13150  0.43190  Biso   1.000  H
  C421     1.0000 0.08050  0.04500  0.48200  Biso   1.000  C
  C422     1.0000 0.03280  0.07230  0.42210  Biso   1.000  C
  C423     1.0000 0.07550  0.00560  0.50720  Biso   1.000  C
  H591     1.0000 0.04190  0.99630  0.48960  Biso   1.000  H
  N76      1.0000 0.23070  0.19130  0.45290  Biso   1.000  N
  C424     1.0000 0.27410  0.19640  0.44810  Biso   1.000  C
  H592     1.0000 0.26450  0.21440  0.40520  Biso   1.000  H
  H593     1.0000 0.30220  0.20980  0.49380  Biso   1.000  H
  H594     1.0000 0.28510  0.16850  0.44210  Biso   1.000  H
  C425     1.0000 0.22250  0.14830  0.46910  Biso   1.000  C
  H595     1.0000 0.21050  0.14950  0.50200  Biso   1.000  H
  H596     1.0000 0.19680  0.13400  0.42260  Biso   1.000  H
  H597     1.0000 0.25470  0.13240  0.49380  Biso   1.000  H
  C426     1.0000 0.19530  0.22170  0.44110  Biso   1.000  C
  H598     1.0000 0.17010  0.21200  0.44860  Biso   1.000  H
  O82      1.0000 0.19110  0.25800  0.42310  Biso   1.000  O
  N77      1.0000 0.11810  0.10360  0.69000  Biso   1.000  N
  C427     1.0000 0.10780  0.14810  0.66700  Biso   1.000  C
  H599     1.0000 0.13900  0.16150  0.67700  Biso   1.000  H
  H600     1.0000 0.08090  0.14970  0.61370  Biso   1.000  H
  H601     1.0000 0.09660  0.16290  0.69520  Biso   1.000  H
  C428     1.0000 0.17060  0.09110  0.74400  Biso   1.000  C
  H602     1.0000 0.19350  0.11370  0.74830  Biso   1.000  H
  H603     1.0000 0.17600  0.08610  0.79210  Biso   1.000  H
  H604     1.0000 0.17790  0.06490  0.72670  Biso   1.000  H
  C429     1.0000 0.07990  0.07180  0.66300  Biso   1.000  C
  H605     1.0000 0.09030  0.04330  0.67840  Biso   1.000  H
  O83      1.0000 0.03300  0.07960  0.61900  Biso   1.000  O
  N78      1.0000 0.20250  0.18630  0.44590  Biso   1.000  N
  C430     1.0000 0.23790  0.15170  0.46190  Biso   1.000  C
  H606     1.0000 0.22150  0.12450  0.45800  Biso   1.000  H
  H607     1.0000 0.26870  0.15500  0.51240  Biso   1.000  H
  H608     1.0000 0.24730  0.15240  0.42590  Biso   1.000  H
  C431     1.0000 0.20240  0.21880  0.39720  Biso   1.000  C
  H609     1.0000 0.23020  0.23900  0.42740  Biso   1.000  H
  H610     1.0000 0.16960  0.23390  0.37080  Biso   1.000  H
  H611     1.0000 0.20720  0.20510  0.36110  Biso   1.000  H
  C432     1.0000 0.17230  0.18830  0.47190  Biso   1.000  C
  H612     1.0000 0.15100  0.21230  0.46090  Biso   1.000  H
  O84      1.0000 0.17220  0.15960  0.50900  Biso   1.000  O
  Zn15     1.0000 0.28599  0.43960  0.76195  Biso   1.000  Zn
  Zn16     1.0000 0.21824  0.50372  0.76198  Biso   1.000  Zn
  C433     1.0000 0.39123  0.33547  0.75820  Biso   1.000  C
  C434     1.0000 0.40830  0.29972  0.80500  Biso   1.000  C
  H613     1.0000 0.39910  0.29640  0.83950  Biso   1.000  H
  C435     1.0000 0.43870  0.26890  0.80160  Biso   1.000  C
  H614     1.0000 0.44990  0.24530  0.83440  Biso   1.000  H
  N79      1.0000 0.45278  0.27144  0.75340  Biso   1.000  N
  C436     1.0000 0.43720  0.30558  0.70930  Biso   1.000  C
  H615     1.0000 0.44730  0.30810  0.67570  Biso   1.000  H
  C437     1.0000 0.40710  0.33762  0.70960  Biso   1.000  C
  H616     1.0000 0.39730  0.36110  0.67680  Biso   1.000  H
  B13      1.0000 0.35610  0.37156  0.76060  Biso   1.000  B
  O85      1.0000 0.30670  0.35039  0.73410  Biso   1.000  O
  N80      1.0000 0.27132  0.37402  0.74010  Biso   1.000  N
  C438     1.0000 0.23610  0.35072  0.73390  Biso   1.000  C
  H617     1.0000 0.23760  0.32120  0.72610  Biso   1.000  H
  C439     1.0000 0.19340  0.36497  0.73740  Biso   1.000  C
  C440     1.0000 0.18240  0.40869  0.73980  Biso   1.000  C
  C441     1.0000 0.13890  0.41750  0.74230  Biso   1.000  C
  C442     1.0000 0.11040  0.38406  0.74360  Biso   1.000  C
  H618     1.0000 0.08180  0.39090  0.74530  Biso   1.000  H
  C443     1.0000 0.12130  0.34151  0.74270  Biso   1.000  C
  C444     1.0000 0.16290  0.33335  0.73910  Biso   1.000  C
  H619     1.0000 0.17130  0.30450  0.73770  Biso   1.000  H
  C445     1.0000 0.12440  0.46064  0.74760  Biso   1.000  C
  H620     1.0000 0.09450  0.46360  0.74740  Biso   1.000  H
  N81      1.0000 0.14790  0.49500  0.75250  Biso   1.000  N
  O86      1.0000 0.12350  0.53103  0.75710  Biso   1.000  O
  B14      1.0000 0.14800  0.57170  0.76280  Biso   1.000  B
  O87      1.0000 0.35120  0.40561  0.71100  Biso   1.000  O
  N82      1.0000 0.31780  0.43896  0.69750  Biso   1.000  N
  C446     1.0000 0.31510  0.46604  0.65140  Biso   1.000  C
  H621     1.0000 0.33450  0.46020  0.63130  Biso   1.000  H
  C447     1.0000 0.28510  0.50486  0.62740  Biso   1.000  C
  C448     1.0000 0.25370  0.51763  0.65230  Biso   1.000  C
  C449     1.0000 0.22570  0.55587  0.62270  Biso   1.000  C
  C450     1.0000 0.22960  0.58000  0.57180  Biso   1.000  C
  H622     1.0000 0.21030  0.60540  0.55270  Biso   1.000  H
  C451     1.0000 0.26070  0.56830  0.54800  Biso   1.000  C
  C452     1.0000 0.28770  0.53040  0.57700  Biso   1.000  C
  H623     1.0000 0.30910  0.52150  0.56160  Biso   1.000  H
  C453     1.0000 0.19100  0.57270  0.64190  Biso   1.000  C
  H624     1.0000 0.17230  0.59760  0.61660  Biso   1.000  H
  N83      1.0000 0.18400  0.55667  0.68960  Biso   1.000  N
  O88      1.0000 0.14890  0.58084  0.69550  Biso   1.000  O
  O89      1.0000 0.38325  0.38655  0.83880  Biso   1.000  O
  N84      1.0000 0.36166  0.42218  0.85010  Biso   1.000  N
  C454     1.0000 0.39290  0.44040  0.91210  Biso   1.000  C
  H625     1.0000 0.42650  0.42890  0.94200  Biso   1.000  H
  C455     1.0000 0.38180  0.47730  0.94110  Biso   1.000  C
  C456     1.0000 0.33290  0.49750  0.90320  Biso   1.000  C
  C457     1.0000 0.32810  0.53310  0.93940  Biso   1.000  C
  C458     1.0000 0.37000  0.54100  0.01440  Biso   1.000  C
  H626     1.0000 0.36540  0.56290  0.04020  Biso   1.000  H
  C459     1.0000 0.41700  0.52000  0.05370  Biso   1.000  C
  C460     1.0000 0.46330  0.53140  0.13220  Biso   1.000  C
  C461     1.0000 0.45320  0.57400  0.15750  Biso   1.000  C
  H627     1.0000 0.44240  0.59550  0.11870  Biso   1.000  H
  H628     1.0000 0.42620  0.57000  0.16600  Biso   1.000  H
  H629     1.0000 0.48460  0.58340  0.20380  Biso   1.000  H
  C462     1.0000 0.51040  0.53680  0.13030  Biso   1.000  C
  H630     1.0000 0.51450  0.51170  0.10750  Biso   1.000  H
  H631     1.0000 0.50620  0.56210  0.10090  Biso   1.000  H
  H632     1.0000 0.54070  0.54020  0.18130  Biso   1.000  H
  C463     1.0000 0.47490  0.49580  0.18780  Biso   1.000  C
  H633     1.0000 0.44660  0.49340  0.19400  Biso   1.000  H
  H634     1.0000 0.47880  0.46890  0.16890  Biso   1.000  H
  H635     1.0000 0.50650  0.50230  0.23590  Biso   1.000  H
  C464     1.0000 0.42040  0.48580  0.01590  Biso   1.000  C
  H636     1.0000 0.44960  0.46790  0.04140  Biso   1.000  H
  C465     1.0000 0.28010  0.55660  0.90740  Biso   1.000  C
  H637     1.0000 0.28110  0.58080  0.93440  Biso   1.000  H
  N85      1.0000 0.23726  0.54818  0.84720  Biso   1.000  N
  O90      1.0000 0.19870  0.57696  0.83310  Biso   1.000  O
  C466     1.0000 0.11210  0.60883  0.76080  Biso   1.000  C
  C467     1.0000 0.13130  0.64376  0.80840  Biso   1.000  C
  H638     1.0000 0.16690  0.64570  0.84580  Biso   1.000  H
  C468     1.0000 0.09880  0.67588  0.80180  Biso   1.000  C
  H639     1.0000 0.11340  0.69960  0.83440  Biso   1.000  H
  N86      1.0000 0.04783  0.67524  0.75160  Biso   1.000  N
  C469     1.0000 0.02880  0.64177  0.70620  Biso   1.000  C
  H640     1.0000 0.99290  0.64040  0.67030  Biso   1.000  H
  C470     1.0000 0.05900  0.60859  0.70870  Biso   1.000  C
  H641     1.0000 0.04340  0.58560  0.67480  Biso   1.000  H
  O91      1.0000 0.21095  0.43893  0.73920  Biso   1.000  O
  C471     1.0000 0.08900  0.30680  0.74790  Biso   1.000  C
  C472     1.0000 0.10620  0.26290  0.74310  Biso   1.000  C
  H642     1.0000 0.08420  0.24160  0.74450  Biso   1.000  H
  H643     1.0000 0.10400  0.26020  0.69630  Biso   1.000  H
  H644     1.0000 0.14170  0.25850  0.78530  Biso   1.000  H
  C473     1.0000 0.03290  0.31220  0.68320  Biso   1.000  C
  H645     1.0000 0.02450  0.29180  0.64380  Biso   1.000  H
  H646     1.0000 0.01100  0.30710  0.70110  Biso   1.000  H
  H647     1.0000 0.02740  0.34110  0.66340  Biso   1.000  H
  C474     1.0000 0.09180  0.31250  0.81910  Biso   1.000  C
  H648     1.0000 0.07310  0.33820  0.81560  Biso   1.000  H
  H649     1.0000 0.07640  0.28780  0.82680  Biso   1.000  H
  H650     1.0000 0.12760  0.31510  0.86120  Biso   1.000  H
  O92      1.0000 0.25094  0.49511  0.69990  Biso   1.000  O
  O93      1.0000 0.29353  0.48210  0.84170  Biso   1.000  O
  C475     1.0000 0.27240  0.60250  0.50570  Biso   1.000  C
  C476     1.0000 0.28590  0.58080  0.45840  Biso   1.000  C
  H651     1.0000 0.26370  0.55600  0.43450  Biso   1.000  H
  H652     1.0000 0.28120  0.60050  0.42000  Biso   1.000  H
  H653     1.0000 0.32170  0.57160  0.48940  Biso   1.000  H
  C477     1.0000 0.30270  0.64370  0.54830  Biso   1.000  C
  H654     1.0000 0.30670  0.66170  0.51510  Biso   1.000  H
  H655     1.0000 0.28390  0.65930  0.56460  Biso   1.000  H
  H656     1.0000 0.33650  0.63590  0.59190  Biso   1.000  H
  C478     1.0000 0.21250  0.62140  0.43480  Biso   1.000  C
  H657     1.0000 0.21640  0.64200  0.40440  Biso   1.000  H
  H658     1.0000 0.19120  0.59770  0.40350  Biso   1.000  H
  H659     1.0000 0.19620  0.63540  0.45670  Biso   1.000  H
  N87      1.0000 0.43650  0.67590  0.97610  Biso   1.000  N
  O94      1.0000 0.38590  0.66380  0.01940  Biso   1.000  O
  C479     1.0000 0.48270  0.66160  0.04450  Biso   1.000  C
  H660     1.0000 0.49900  0.63940  0.03300  Biso   1.000  H
  H661     1.0000 0.50630  0.68560  0.06860  Biso   1.000  H
  H662     1.0000 0.47410  0.65010  0.07810  Biso   1.000  H
  C480     1.0000 0.43410  0.68860  0.90960  Biso   1.000  C
  H663     1.0000 0.40170  0.67910  0.86510  Biso   1.000  H
  H664     1.0000 0.43650  0.71960  0.90860  Biso   1.000  H
  H665     1.0000 0.46260  0.67560  0.91050  Biso   1.000  H
  C481     1.0000 0.39010  0.67620  0.97120  Biso   1.000  C
  H666     1.0000 0.36050  0.68690  0.92690  Biso   1.000  H
  N88      1.0000 0.38800  0.57390  0.83500  Biso   1.000  N
  C482     1.0000 0.39160  0.56410  0.77330  Biso   1.000  C
  H667     1.0000 0.35840  0.56920  0.72630  Biso   1.000  H
  H668     1.0000 0.41760  0.58220  0.77540  Biso   1.000  H
  H669     1.0000 0.40110  0.53420  0.77600  Biso   1.000  H
  C483     1.0000 0.33870  0.58880  0.81500  Biso   1.000  C
  H670     1.0000 0.32190  0.60430  0.76770  Biso   1.000  H
  H671     1.0000 0.31760  0.56450  0.80970  Biso   1.000  H
  H672     1.0000 0.34320  0.60780  0.85410  Biso   1.000  H
  C484     1.0000 0.42940  0.57320  0.91050  Biso   1.000  C
  H673     1.0000 0.42130  0.57930  0.94550  Biso   1.000  H
  O95      1.0000 0.47310  0.56590  0.93590  Biso   1.000  O
  C485     1.0000 0.25930  0.58900  0.48280  Biso   1.000  C
  C486     1.0000 0.23450  0.55760  0.41560  Biso   1.000  C
  H674     1.0000 0.20060  0.54910  0.40270  Biso   1.000  H
  H675     1.0000 0.23110  0.57150  0.37270  Biso   1.000  H
  H676     1.0000 0.25610  0.53230  0.42920  Biso   1.000  H
  C487     1.0000 0.31460  0.59960  0.50980  Biso   1.000  C
  H677     1.0000 0.31710  0.60100  0.46690  Biso   1.000  H
  H678     1.0000 0.32440  0.62700  0.53560  Biso   1.000  H
  H679     1.0000 0.33760  0.57740  0.54410  Biso   1.000  H
  C488     1.0000 0.23020  0.63080  0.45990  Biso   1.000  C
  H680     1.0000 0.23000  0.64310  0.41820  Biso   1.000  H
  H681     1.0000 0.19500  0.62570  0.44440  Biso   1.000  H
  H682     1.0000 0.24690  0.65050  0.50210  Biso   1.000  H
  C489     1.0000 0.37080  0.55990  0.98710  Biso   1.000  C
  H683     1.0000 0.36560  0.58800  0.99740  Biso   1.000  H
  C490     1.0000 0.45710  0.59640  0.12910  Biso   1.000  C
  H684     1.0000 0.43580  0.62130  0.10290  Biso   1.000  H
  H685     1.0000 0.43920  0.57770  0.14350  Biso   1.000  H
  H686     1.0000 0.48960  0.60550  0.17380  Biso   1.000  H
  C491     1.0000 0.51470  0.54550  0.12550  Biso   1.000  C
  H687     1.0000 0.51590  0.53490  0.16890  Biso   1.000  H
  H688     1.0000 0.51380  0.52150  0.09610  Biso   1.000  H
  H689     1.0000 0.54510  0.56290  0.14240  Biso   1.000  H
  C492     1.0000 0.47810  0.60540  0.03850  Biso   1.000  C
  H690     1.0000 0.50460  0.59480  0.03220  Biso   1.000  H
  H691     1.0000 0.44690  0.61130  0.98940  Biso   1.000  H
  H692     1.0000 0.49000  0.63150  0.06810  Biso   1.000  H
  C493     1.0000 0.41950  0.54500  0.01800  Biso   1.000  C
  C494     1.0000 0.46720  0.57230  0.07790  Biso   1.000  C
  C495     1.0000 0.42450  0.50560  0.99280  Biso   1.000  C
  H693     1.0000 0.45810  0.49630  0.01040  Biso   1.000  H
  N89      1.0000 0.26930  0.69130  0.04710  Biso   1.000  N
  C496     1.0000 0.22590  0.69640  0.05190  Biso   1.000  C
  H694     1.0000 0.23550  0.71440  0.09480  Biso   1.000  H
  H695     1.0000 0.19780  0.70980  0.00620  Biso   1.000  H
  H696     1.0000 0.21490  0.66850  0.05790  Biso   1.000  H
  C497     1.0000 0.27750  0.64830  0.03090  Biso   1.000  C
  H697     1.0000 0.28950  0.64950  0.99800  Biso   1.000  H
  H698     1.0000 0.30320  0.63400  0.07740  Biso   1.000  H
  H699     1.0000 0.24530  0.63240  0.00620  Biso   1.000  H
  C498     1.0000 0.30470  0.72170  0.05890  Biso   1.000  C
  H700     1.0000 0.32990  0.71200  0.05140  Biso   1.000  H
  O96      1.0000 0.30890  0.75800  0.07690  Biso   1.000  O
  N90      1.0000 0.38190  0.60360  0.81000  Biso   1.000  N
  C499     1.0000 0.39220  0.64810  0.83300  Biso   1.000  C
  H701     1.0000 0.36100  0.66150  0.82300  Biso   1.000  H
  H702     1.0000 0.41910  0.64970  0.88630  Biso   1.000  H
  H703     1.0000 0.40340  0.66290  0.80480  Biso   1.000  H
  C500     1.0000 0.32940  0.59110  0.75600  Biso   1.000  C
  H704     1.0000 0.30650  0.61370  0.75170  Biso   1.000  H
  H705     1.0000 0.32400  0.58610  0.70790  Biso   1.000  H
  H706     1.0000 0.32210  0.56490  0.77330  Biso   1.000  H
  C501     1.0000 0.42010  0.57180  0.83700  Biso   1.000  C
  H707     1.0000 0.40970  0.54330  0.82160  Biso   1.000  H
  O97      1.0000 0.46700  0.57960  0.88100  Biso   1.000  O
  N91      1.0000 0.29750  0.68630  0.05410  Biso   1.000  N
  C502     1.0000 0.26210  0.65170  0.03810  Biso   1.000  C
  H708     1.0000 0.27850  0.62450  0.04200  Biso   1.000  H
  H709     1.0000 0.23130  0.65500  0.98760  Biso   1.000  H
  H710     1.0000 0.25270  0.65240  0.07410  Biso   1.000  H
  C503     1.0000 0.29760  0.71880  0.10280  Biso   1.000  C
  H711     1.0000 0.26980  0.73900  0.07260  Biso   1.000  H
  H712     1.0000 0.33040  0.73390  0.12920  Biso   1.000  H
  H713     1.0000 0.29280  0.70510  0.13890  Biso   1.000  H
  C504     1.0000 0.32770  0.68830  0.02810  Biso   1.000  C
  H714     1.0000 0.34900  0.71230  0.03910  Biso   1.000  H
  O98      1.0000 0.32780  0.65960  0.99100  Biso   1.000  O
  Zn17     1.0000 0.78599  0.93960  0.76195  Biso   1.000  Zn
  Zn18     1.0000 0.71824  0.00372  0.76198  Biso   1.000  Zn
  C505     1.0000 0.89123  0.83547  0.75820  Biso   1.000  C
  C506     1.0000 0.90830  0.79972  0.80500  Biso   1.000  C
  H715     1.0000 0.89910  0.79640  0.83950  Biso   1.000  H
  C507     1.0000 0.93870  0.76890  0.80160  Biso   1.000  C
  H716     1.0000 0.94990  0.74530  0.83440  Biso   1.000  H
  N92      1.0000 0.95278  0.77144  0.75340  Biso   1.000  N
  C508     1.0000 0.93720  0.80558  0.70930  Biso   1.000  C
  H717     1.0000 0.94730  0.80810  0.67570  Biso   1.000  H
  C509     1.0000 0.90710  0.83762  0.70960  Biso   1.000  C
  H718     1.0000 0.89730  0.86110  0.67680  Biso   1.000  H
  B15      1.0000 0.85610  0.87156  0.76060  Biso   1.000  B
  O99      1.0000 0.80670  0.85039  0.73410  Biso   1.000  O
  N93      1.0000 0.77132  0.87402  0.74010  Biso   1.000  N
  C510     1.0000 0.73610  0.85072  0.73390  Biso   1.000  C
  H719     1.0000 0.73760  0.82120  0.72610  Biso   1.000  H
  C511     1.0000 0.69340  0.86497  0.73740  Biso   1.000  C
  C512     1.0000 0.68240  0.90869  0.73980  Biso   1.000  C
  C513     1.0000 0.63890  0.91750  0.74230  Biso   1.000  C
  C514     1.0000 0.61040  0.88406  0.74360  Biso   1.000  C
  H720     1.0000 0.58180  0.89090  0.74530  Biso   1.000  H
  C515     1.0000 0.62130  0.84151  0.74270  Biso   1.000  C
  C516     1.0000 0.66290  0.83335  0.73910  Biso   1.000  C
  H721     1.0000 0.67130  0.80450  0.73770  Biso   1.000  H
  C517     1.0000 0.62440  0.96064  0.74760  Biso   1.000  C
  H722     1.0000 0.59450  0.96360  0.74740  Biso   1.000  H
  N94      1.0000 0.64790  0.99500  0.75250  Biso   1.000  N
  O100     1.0000 0.62350  0.03103  0.75710  Biso   1.000  O
  B16      1.0000 0.64800  0.07170  0.76280  Biso   1.000  B
  O101     1.0000 0.85120  0.90561  0.71100  Biso   1.000  O
  N95      1.0000 0.81780  0.93896  0.69750  Biso   1.000  N
  C518     1.0000 0.81510  0.96604  0.65140  Biso   1.000  C
  H723     1.0000 0.83450  0.96020  0.63130  Biso   1.000  H
  C519     1.0000 0.78510  0.00486  0.62740  Biso   1.000  C
  C520     1.0000 0.75370  0.01763  0.65230  Biso   1.000  C
  C521     1.0000 0.72570  0.05587  0.62270  Biso   1.000  C
  C522     1.0000 0.72960  0.08000  0.57180  Biso   1.000  C
  H724     1.0000 0.71030  0.10540  0.55270  Biso   1.000  H
  C523     1.0000 0.76070  0.06830  0.54800  Biso   1.000  C
  C524     1.0000 0.78770  0.03040  0.57700  Biso   1.000  C
  H725     1.0000 0.80910  0.02150  0.56160  Biso   1.000  H
  C525     1.0000 0.69100  0.07270  0.64190  Biso   1.000  C
  H726     1.0000 0.67230  0.09760  0.61660  Biso   1.000  H
  N96      1.0000 0.68400  0.05667  0.68960  Biso   1.000  N
  O102     1.0000 0.64890  0.08084  0.69550  Biso   1.000  O
  O103     1.0000 0.88325  0.88655  0.83880  Biso   1.000  O
  N97      1.0000 0.86166  0.92218  0.85010  Biso   1.000  N
  C526     1.0000 0.89290  0.94040  0.91210  Biso   1.000  C
  H727     1.0000 0.92650  0.92890  0.94200  Biso   1.000  H
  C527     1.0000 0.88180  0.97730  0.94110  Biso   1.000  C
  C528     1.0000 0.83290  0.99750  0.90320  Biso   1.000  C
  C529     1.0000 0.82810  0.03310  0.93940  Biso   1.000  C
  C530     1.0000 0.87000  0.04100  0.01440  Biso   1.000  C
  H728     1.0000 0.86540  0.06290  0.04020  Biso   1.000  H
  C531     1.0000 0.91700  0.02000  0.05370  Biso   1.000  C
  C532     1.0000 0.96330  0.03140  0.13220  Biso   1.000  C
  C533     1.0000 0.95320  0.07400  0.15750  Biso   1.000  C
  H729     1.0000 0.94240  0.09550  0.11870  Biso   1.000  H
  H730     1.0000 0.92620  0.07000  0.16600  Biso   1.000  H
  H731     1.0000 0.98460  0.08340  0.20380  Biso   1.000  H
  C534     1.0000 0.01040  0.03680  0.13030  Biso   1.000  C
  H732     1.0000 0.01450  0.01170  0.10750  Biso   1.000  H
  H733     1.0000 0.00620  0.06210  0.10090  Biso   1.000  H
  H734     1.0000 0.04070  0.04020  0.18130  Biso   1.000  H
  C535     1.0000 0.97490  0.99580  0.18780  Biso   1.000  C
  H735     1.0000 0.94660  0.99340  0.19400  Biso   1.000  H
  H736     1.0000 0.97880  0.96890  0.16890  Biso   1.000  H
  H737     1.0000 0.00650  0.00230  0.23590  Biso   1.000  H
  C536     1.0000 0.92040  0.98580  0.01590  Biso   1.000  C
  H738     1.0000 0.94960  0.96790  0.04140  Biso   1.000  H
  C537     1.0000 0.78010  0.05660  0.90740  Biso   1.000  C
  H739     1.0000 0.78110  0.08080  0.93440  Biso   1.000  H
  N98      1.0000 0.73726  0.04818  0.84720  Biso   1.000  N
  O104     1.0000 0.69870  0.07696  0.83310  Biso   1.000  O
  C538     1.0000 0.61210  0.10883  0.76080  Biso   1.000  C
  C539     1.0000 0.63130  0.14376  0.80840  Biso   1.000  C
  H740     1.0000 0.66690  0.14570  0.84580  Biso   1.000  H
  C540     1.0000 0.59880  0.17588  0.80180  Biso   1.000  C
  H741     1.0000 0.61340  0.19960  0.83440  Biso   1.000  H
  N99      1.0000 0.54783  0.17524  0.75160  Biso   1.000  N
  C541     1.0000 0.52880  0.14177  0.70620  Biso   1.000  C
  H742     1.0000 0.49290  0.14040  0.67030  Biso   1.000  H
  C542     1.0000 0.55900  0.10859  0.70870  Biso   1.000  C
  H743     1.0000 0.54340  0.08560  0.67480  Biso   1.000  H
  O105     1.0000 0.71095  0.93893  0.73920  Biso   1.000  O
  C543     1.0000 0.58900  0.80680  0.74790  Biso   1.000  C
  C544     1.0000 0.60620  0.76290  0.74310  Biso   1.000  C
  H744     1.0000 0.58420  0.74160  0.74450  Biso   1.000  H
  H745     1.0000 0.60400  0.76020  0.69630  Biso   1.000  H
  H746     1.0000 0.64170  0.75850  0.78530  Biso   1.000  H
  C545     1.0000 0.53290  0.81220  0.68320  Biso   1.000  C
  H747     1.0000 0.52450  0.79180  0.64380  Biso   1.000  H
  H748     1.0000 0.51100  0.80710  0.70110  Biso   1.000  H
  H749     1.0000 0.52740  0.84110  0.66340  Biso   1.000  H
  C546     1.0000 0.59180  0.81250  0.81910  Biso   1.000  C
  H750     1.0000 0.57310  0.83820  0.81560  Biso   1.000  H
  H751     1.0000 0.57640  0.78780  0.82680  Biso   1.000  H
  H752     1.0000 0.62760  0.81510  0.86120  Biso   1.000  H
  O106     1.0000 0.75094  0.99511  0.69990  Biso   1.000  O
  O107     1.0000 0.79353  0.98210  0.84170  Biso   1.000  O
  C547     1.0000 0.77240  0.10250  0.50570  Biso   1.000  C
  C548     1.0000 0.78590  0.08080  0.45840  Biso   1.000  C
  H753     1.0000 0.76370  0.05600  0.43450  Biso   1.000  H
  H754     1.0000 0.78120  0.10050  0.42000  Biso   1.000  H
  H755     1.0000 0.82170  0.07160  0.48940  Biso   1.000  H
  C549     1.0000 0.80270  0.14370  0.54830  Biso   1.000  C
  H756     1.0000 0.80670  0.16170  0.51510  Biso   1.000  H
  H757     1.0000 0.78390  0.15930  0.56460  Biso   1.000  H
  H758     1.0000 0.83650  0.13590  0.59190  Biso   1.000  H
  C550     1.0000 0.71250  0.12140  0.43480  Biso   1.000  C
  H759     1.0000 0.71640  0.14200  0.40440  Biso   1.000  H
  H760     1.0000 0.69120  0.09770  0.40350  Biso   1.000  H
  H761     1.0000 0.69620  0.13540  0.45670  Biso   1.000  H
  N100     1.0000 0.93650  0.17590  0.97610  Biso   1.000  N
  O108     1.0000 0.88590  0.16380  0.01940  Biso   1.000  O
  C551     1.0000 0.98270  0.16160  0.04450  Biso   1.000  C
  H762     1.0000 0.99900  0.13940  0.03300  Biso   1.000  H
  H763     1.0000 0.00630  0.18560  0.06860  Biso   1.000  H
  H764     1.0000 0.97410  0.15010  0.07810  Biso   1.000  H
  C552     1.0000 0.93410  0.18860  0.90960  Biso   1.000  C
  H765     1.0000 0.90170  0.17910  0.86510  Biso   1.000  H
  H766     1.0000 0.93650  0.21960  0.90860  Biso   1.000  H
  H767     1.0000 0.96260  0.17560  0.91050  Biso   1.000  H
  C553     1.0000 0.89010  0.17620  0.97120  Biso   1.000  C
  H768     1.0000 0.86050  0.18690  0.92690  Biso   1.000  H
  N101     1.0000 0.88800  0.07390  0.83500  Biso   1.000  N
  C554     1.0000 0.89160  0.06410  0.77330  Biso   1.000  C
  H769     1.0000 0.85840  0.06920  0.72630  Biso   1.000  H
  H770     1.0000 0.91760  0.08220  0.77540  Biso   1.000  H
  H771     1.0000 0.90110  0.03420  0.77600  Biso   1.000  H
  C555     1.0000 0.83870  0.08880  0.81500  Biso   1.000  C
  H772     1.0000 0.82190  0.10430  0.76770  Biso   1.000  H
  H773     1.0000 0.81760  0.06450  0.80970  Biso   1.000  H
  H774     1.0000 0.84320  0.10780  0.85410  Biso   1.000  H
  C556     1.0000 0.92940  0.07320  0.91050  Biso   1.000  C
  H775     1.0000 0.92130  0.07930  0.94550  Biso   1.000  H
  O109     1.0000 0.97310  0.06590  0.93590  Biso   1.000  O
  C557     1.0000 0.75930  0.08900  0.48280  Biso   1.000  C
  C558     1.0000 0.73450  0.05760  0.41560  Biso   1.000  C
  H776     1.0000 0.70060  0.04910  0.40270  Biso   1.000  H
  H777     1.0000 0.73110  0.07150  0.37270  Biso   1.000  H
  H778     1.0000 0.75610  0.03230  0.42920  Biso   1.000  H
  C559     1.0000 0.81460  0.09960  0.50980  Biso   1.000  C
  H779     1.0000 0.81710  0.10100  0.46690  Biso   1.000  H
  H780     1.0000 0.82440  0.12700  0.53560  Biso   1.000  H
  H781     1.0000 0.83760  0.07740  0.54410  Biso   1.000  H
  C560     1.0000 0.73020  0.13080  0.45990  Biso   1.000  C
  H782     1.0000 0.73000  0.14310  0.41820  Biso   1.000  H
  H783     1.0000 0.69500  0.12570  0.44440  Biso   1.000  H
  H784     1.0000 0.74690  0.15050  0.50210  Biso   1.000  H
  C561     1.0000 0.87080  0.05990  0.98710  Biso   1.000  C
  H785     1.0000 0.86560  0.08800  0.99740  Biso   1.000  H
  C562     1.0000 0.95710  0.09640  0.12910  Biso   1.000  C
  H786     1.0000 0.93580  0.12130  0.10290  Biso   1.000  H
  H787     1.0000 0.93920  0.07770  0.14350  Biso   1.000  H
  H788     1.0000 0.98960  0.10550  0.17380  Biso   1.000  H
  C563     1.0000 0.01470  0.04550  0.12550  Biso   1.000  C
  H789     1.0000 0.01590  0.03490  0.16890  Biso   1.000  H
  H790     1.0000 0.01380  0.02150  0.09610  Biso   1.000  H
  H791     1.0000 0.04510  0.06290  0.14240  Biso   1.000  H
  C564     1.0000 0.97810  0.10540  0.03850  Biso   1.000  C
  H792     1.0000 0.00460  0.09480  0.03220  Biso   1.000  H
  H793     1.0000 0.94690  0.11130  0.98940  Biso   1.000  H
  H794     1.0000 0.99000  0.13150  0.06810  Biso   1.000  H
  C565     1.0000 0.91950  0.04500  0.01800  Biso   1.000  C
  C566     1.0000 0.96720  0.07230  0.07790  Biso   1.000  C
  C567     1.0000 0.92450  0.00560  0.99280  Biso   1.000  C
  H795     1.0000 0.95810  0.99630  0.01040  Biso   1.000  H
  N102     1.0000 0.76930  0.19130  0.04710  Biso   1.000  N
  C568     1.0000 0.72590  0.19640  0.05190  Biso   1.000  C
  H796     1.0000 0.73550  0.21440  0.09480  Biso   1.000  H
  H797     1.0000 0.69780  0.20980  0.00620  Biso   1.000  H
  H798     1.0000 0.71490  0.16850  0.05790  Biso   1.000  H
  C569     1.0000 0.77750  0.14830  0.03090  Biso   1.000  C
  H799     1.0000 0.78950  0.14950  0.99800  Biso   1.000  H
  H800     1.0000 0.80320  0.13400  0.07740  Biso   1.000  H
  H801     1.0000 0.74530  0.13240  0.00620  Biso   1.000  H
  C570     1.0000 0.80470  0.22170  0.05890  Biso   1.000  C
  H802     1.0000 0.82990  0.21200  0.05140  Biso   1.000  H
  O110     1.0000 0.80890  0.25800  0.07690  Biso   1.000  O
  N103     1.0000 0.88190  0.10360  0.81000  Biso   1.000  N
  C571     1.0000 0.89220  0.14810  0.83300  Biso   1.000  C
  H803     1.0000 0.86100  0.16150  0.82300  Biso   1.000  H
  H804     1.0000 0.91910  0.14970  0.88630  Biso   1.000  H
  H805     1.0000 0.90340  0.16290  0.80480  Biso   1.000  H
  C572     1.0000 0.82940  0.09110  0.75600  Biso   1.000  C
  H806     1.0000 0.80650  0.11370  0.75170  Biso   1.000  H
  H807     1.0000 0.82400  0.08610  0.70790  Biso   1.000  H
  H808     1.0000 0.82210  0.06490  0.77330  Biso   1.000  H
  C573     1.0000 0.92010  0.07180  0.83700  Biso   1.000  C
  H809     1.0000 0.90970  0.04330  0.82160  Biso   1.000  H
  O111     1.0000 0.96700  0.07960  0.88100  Biso   1.000  O
  N104     1.0000 0.79750  0.18630  0.05410  Biso   1.000  N
  C574     1.0000 0.76210  0.15170  0.03810  Biso   1.000  C
  H810     1.0000 0.77850  0.12450  0.04200  Biso   1.000  H
  H811     1.0000 0.73130  0.15500  0.98760  Biso   1.000  H
  H812     1.0000 0.75270  0.15240  0.07410  Biso   1.000  H
  C575     1.0000 0.79760  0.21880  0.10280  Biso   1.000  C
  H813     1.0000 0.76980  0.23900  0.07260  Biso   1.000  H
  H814     1.0000 0.83040  0.23390  0.12920  Biso   1.000  H
  H815     1.0000 0.79280  0.20510  0.13890  Biso   1.000  H
  C576     1.0000 0.82770  0.18830  0.02810  Biso   1.000  C
  H816     1.0000 0.84900  0.21230  0.03910  Biso   1.000  H
  O112     1.0000 0.82780  0.15960  0.99100  Biso   1.000  O
  Zn19     1.0000 0.50000  0.22429  0.75000  Biso   1.000  Zn
  Zn20     1.0000 0.00000  0.72429  0.75000  Biso   1.000  Zn
